  
     RDKit          3D

  0  0  0  0  0  0  0  0  0  0999 V3000
M  V30 BEGIN CTAB
M  V30 COUNTS 12 12 0 0 0
M  V30 BEGIN ATOM
M  V30 1 C -0.411157 1.22925 0.973413 0
M  V30 2 C -0.454278 -0.0177509 1.59969 0
M  V30 3 C 0.44153 -1.01741 1.21723 0
M  V30 4 C 1.3716 -0.752791 0.208804 0
M  V30 5 N 1.40071 0.468932 -0.392285 0
M  V30 6 C 0.534008 1.45803 -0.0325434 0
M  V30 7 O 0.582874 2.5792 -0.605221 0
M  V30 8 H -1.10446 2.0078 1.26712 0
M  V30 9 H -1.18017 -0.208801 2.37947 0
M  V30 10 H 0.415912 -1.98733 1.69682 0
M  V30 11 H 2.07029 -1.52237 -0.0942402 0
M  V30 12 H 2.10456 0.645666 -1.14439 0
M  V30 END ATOM
M  V30 BEGIN BOND
M  V30 1 2 1 2
M  V30 2 1 2 3
M  V30 3 2 3 4
M  V30 4 1 4 5
M  V30 5 1 5 6
M  V30 6 2 6 7
M  V30 7 1 6 1
M  V30 8 1 1 8
M  V30 9 1 2 9
M  V30 10 1 3 10
M  V30 11 1 4 11
M  V30 12 1 5 12
M  V30 END BOND
M  V30 END CTAB
M  END
$$$$
