Chain_P
  Generated from PDB
  Converted molecule
  5  0  0  0  0  0  0  0  0  0999 V2000
    3.2000    3.2000    3.2000 H    0  0  0  0  0  0  0  0  0  0  0  0
    3.2000    3.2000    4.2000 H    0  0  0  0  0  0  0  0  0  0  0  0
    0.4440    3.2000    3.2000 C    0  0  0  0  0  0  0  0  0  0  0  0
    3.2000    3.2000    2.2000 H    0  0  0  0  0  0  0  0  0  0  0  0
    0.1290    3.7260    3.2000 C    0  0  0  0  0  0  0  0  0  0  0  0
M  END
$$$$
