Chain_P
  Generated from PDB
  Converted molecule
  5  0  0  0  0  0  0  0  0  0999 V2000
    0.3940    0.0000    0.0000 H    0  0  0  0  0  0  0  0  0  0  0  0
    0.3940    0.0000    1.0000 H    0  0  0  0  0  0  0  0  0  0  0  0
   -2.3620    0.0000    0.0000 C    0  0  0  0  0  0  0  0  0  0  0  0
    0.3940    0.0000   -1.0000 H    0  0  0  0  0  0  0  0  0  0  0  0
   -2.6770    0.9200   -0.0010 C    0  0  0  0  0  0  0  0  0  0  0  0
M  END
$$$$
