996
  -OEChem-07292508333D

 13 13  0     0  0  0  0  0  0999 V2000
   -2.3622    0.0001   -0.0004 O   0  0  0  0  0  0  0  0  0  0  0  0
   -1.0011    0.0000    0.0003 C   0  0  0  0  0  0  0  0  0  0  0  0
   -0.3037    1.2080    0.0002 C   0  0  0  0  0  0  0  0  0  0  0  0
   -0.3038   -1.2079    0.0001 C   0  0  0  0  0  0  0  0  0  0  0  0
    1.0912    1.2080   -0.0001 C   0  0  0  0  0  0  0  0  0  0  0  0
    1.0911   -1.2080    0.0000 C   0  0  0  0  0  0  0  0  0  0  0  0
    1.7886    0.0000   -0.0002 C   0  0  0  0  0  0  0  0  0  0  0  0
   -0.8351    2.1559    0.0002 H   0  0  0  0  0  0  0  0  0  0  0  0
   -0.8415   -2.1521    0.0000 H   0  0  0  0  0  0  0  0  0  0  0  0
    1.6345    2.1484   -0.0003 H   0  0  0  0  0  0  0  0  0  0  0  0
    1.6341   -2.1486   -0.0002 H   0  0  0  0  0  0  0  0  0  0  0  0
    2.8747   -0.0001   -0.0004 H   0  0  0  0  0  0  0  0  0  0  0  0
   -2.6772    0.9203   -0.0005 H   0  0  0  0  0  0  0  0  0  0  0  0
  1  2  1  0  0  0  0
  1 13  1  0  0  0  0
  2  3  2  0  0  0  0
  2  4  1  0  0  0  0
  3  5  1  0  0  0  0
  3  8  1  0  0  0  0
  4  6  2  0  0  0  0
  4  9  1  0  0  0  0
  5  7  2  0  0  0  0
  5 10  1  0  0  0  0
  6  7  1  0  0  0  0
  6 11  1  0  0  0  0
  7 12  1  0  0  0  0
M  END
> <PUBCHEM_COMPOUND_CID>
996

> <PUBCHEM_CONFORMER_RMSD>
0.4

> <PUBCHEM_CONFORMER_DIVERSEORDER>
1

> <PUBCHEM_MMFF94_PARTIAL_CHARGES>
13
1 -0.53
10 0.15
11 0.15
12 0.15
13 0.45
2 0.08
3 -0.15
4 -0.15
5 -0.15
6 -0.15
7 -0.15
8 0.15
9 0.15

> <PUBCHEM_EFFECTIVE_ROTOR_COUNT>
0

> <PUBCHEM_PHARMACOPHORE_FEATURES>
2
1 1 donor
6 2 3 4 5 6 7 rings

> <PUBCHEM_HEAVY_ATOM_COUNT>
7

> <PUBCHEM_ATOM_DEF_STEREO_COUNT>
0

> <PUBCHEM_ATOM_UDEF_STEREO_COUNT>
0

> <PUBCHEM_BOND_DEF_STEREO_COUNT>
0

> <PUBCHEM_BOND_UDEF_STEREO_COUNT>
0

> <PUBCHEM_ISOTOPIC_ATOM_COUNT>
0

> <PUBCHEM_COMPONENT_COUNT>
1

> <PUBCHEM_CACTVS_TAUTO_COUNT>
2

> <PUBCHEM_CONFORMER_ID>
000003E400000001

> <PUBCHEM_MMFF94_ENERGY>
15.2203

> <PUBCHEM_FEATURE_SELFOVERLAP>
10.148

> <PUBCHEM_SHAPE_FINGERPRINT>
18185500 45 18413102853331911583
20096714 4 18339080509377196298
21040471 1 18194683889284956164
23552423 10 17756721727895518302
29004967 10 18334019375760714497

> <PUBCHEM_SHAPE_MULTIPOLES>
138.19
2.19
1.47
0.6
0.7
0
0
0
0
-0.29
0
-0.03
0
0

> <PUBCHEM_SHAPE_SELFOVERLAP>
285.523

> <PUBCHEM_SHAPE_VOLUME>
79.5

> <PUBCHEM_COORDINATE_TYPE>
2
5
10

$$$$
8029
  -OEChem-07292508353D
 
  9  9  0     0  0  0  0  0  0999 V2000
    1.1781    0.0040    0.0000 O   0  0  0  0  0  0  0  0  0  0  0  0
   -0.9576    0.7044    0.0000 C   0  0  0  0  0  0  0  0  0  0  0  0
   -0.9527   -0.7109    0.0000 C   0  0  0  0  0  0  0  0  0  0  0  0
    0.3624    1.0909   -0.0001 C   0  0  0  0  0  0  0  0  0  0  0  0
    0.3700   -1.0884    0.0000 C   0  0  0  0  0  0  0  0  0  0  0  0
   -1.8158    1.3607    0.0001 H   0  0  0  0  0  0  0  0  0  0  0  0
   -1.8065   -1.3731    0.0000 H   0  0  0  0  0  0  0  0  0  0  0  0
    0.8609    2.0492    0.0000 H   0  0  0  0  0  0  0  0  0  0  0  0
    0.8748   -2.0433    0.0000 H   0  0  0  0  0  0  0  0  0  0  0  0
  1  4  1  0  0  0  0
  1  5  1  0  0  0  0
  2  3  1  0  0  0  0
  2  4  2  0  0  0  0
  2  6  1  0  0  0  0
  3  5  2  0  0  0  0
  3  7  1  0  0  0  0
  4  8  1  0  0  0  0
  5  9  1  0  0  0  0
M  END
> <PUBCHEM_COMPOUND_CID>
8029

> <PUBCHEM_CONFORMER_RMSD>
0.4

> <PUBCHEM_CONFORMER_DIVERSEORDER>
1

> <PUBCHEM_MMFF94_PARTIAL_CHARGES>
9
1 -0.28
2 -0.15
3 -0.15
4 -0.01
5 -0.01
6 0.15
7 0.15
8 0.15
9 0.15

> <PUBCHEM_EFFECTIVE_ROTOR_COUNT>
0

> <PUBCHEM_PHARMACOPHORE_FEATURES>
2
1 1 acceptor
5 1 2 3 4 5 rings

> <PUBCHEM_HEAVY_ATOM_COUNT>
5

> <PUBCHEM_ATOM_DEF_STEREO_COUNT>
0

> <PUBCHEM_ATOM_UDEF_STEREO_COUNT>
0

> <PUBCHEM_BOND_DEF_STEREO_COUNT>
0

> <PUBCHEM_BOND_UDEF_STEREO_COUNT>
0

> <PUBCHEM_ISOTOPIC_ATOM_COUNT>
0

> <PUBCHEM_COMPONENT_COUNT>
1

> <PUBCHEM_CACTVS_TAUTO_COUNT>
1

> <PUBCHEM_CONFORMER_ID>
00001F5D00000001

> <PUBCHEM_MMFF94_ENERGY>
0.4261

> <PUBCHEM_FEATURE_SELFOVERLAP>
10.148

> <PUBCHEM_SHAPE_FINGERPRINT>
20096714 4 18267306438978598881
21015797 1 9223231849169713635
21040471 1 18194402186680344513
5943 1 12757448171061552361

> <PUBCHEM_SHAPE_MULTIPOLES>
97.03
1.31
1.25
0.6
0
0.03
0
-0.01
0
0
0
0
0.02
0

> <PUBCHEM_SHAPE_SELFOVERLAP>
198.081

> <PUBCHEM_SHAPE_VOLUME>
58.6

> <PUBCHEM_COORDINATE_TYPE>
2
5
10

$$$$
289
  -OEChem-07292508393D

 14 14  0     0  0  0  0  0  0999 V2000
    1.7858    1.3900    0.0004 O   0  0  0  0  0  0  0  0  0  0  0  0
    1.7858   -1.3900   -0.0001 O   0  0  0  0  0  0  0  0  0  0  0  0
    0.6128    0.6973   -0.0003 C   0  0  0  0  0  0  0  0  0  0  0  0
    0.6127   -0.6974   -0.0001 C   0  0  0  0  0  0  0  0  0  0  0  0
   -0.5952    1.3949   -0.0002 C   0  0  0  0  0  0  0  0  0  0  0  0
   -0.5953   -1.3948    0.0001 C   0  0  0  0  0  0  0  0  0  0  0  0
   -1.8032    0.6974    0.0001 C   0  0  0  0  0  0  0  0  0  0  0  0
   -1.8033   -0.6974    0.0001 C   0  0  0  0  0  0  0  0  0  0  0  0
   -0.6022    2.4815    0.0000 H   0  0  0  0  0  0  0  0  0  0  0  0
   -0.6100   -2.4814    0.0003 H   0  0  0  0  0  0  0  0  0  0  0  0
   -2.7438    1.2404    0.0002 H   0  0  0  0  0  0  0  0  0  0  0  0
   -2.7440   -1.2403    0.0003 H   0  0  0  0  0  0  0  0  0  0  0  0
    2.5187    0.7500    0.0006 H   0  0  0  0  0  0  0  0  0  0  0  0
    1.5910   -2.3429    0.0000 H   0  0  0  0  0  0  0  0  0  0  0  0
  1  3  1  0  0  0  0
  1 13  1  0  0  0  0
  2  4  1  0  0  0  0
  2 14  1  0  0  0  0
  3  4  1  0  0  0  0
  3  5  2  0  0  0  0
  4  6  2  0  0  0  0
  5  7  1  0  0  0  0
  5  9  1  0  0  0  0
  6  8  1  0  0  0  0
  6 10  1  0  0  0  0
  7  8  2  0  0  0  0
  7 11  1  0  0  0  0
  8 12  1  0  0  0  0
M  END
> <PUBCHEM_COMPOUND_CID>
289

> <PUBCHEM_CONFORMER_RMSD>
0.4

> <PUBCHEM_CONFORMER_DIVERSEORDER>
1

> <PUBCHEM_MMFF94_PARTIAL_CHARGES>
14
1 -0.53
10 0.15
11 0.15
12 0.15
13 0.45
14 0.45
2 -0.53
3 0.08
4 0.08
5 -0.15
6 -0.15
7 -0.15
8 -0.15
9 0.15

> <PUBCHEM_EFFECTIVE_ROTOR_COUNT>
0

> <PUBCHEM_PHARMACOPHORE_FEATURES>
3
1 1 donor
1 2 donor
6 3 4 5 6 7 8 rings

> <PUBCHEM_HEAVY_ATOM_COUNT>
8

> <PUBCHEM_ATOM_DEF_STEREO_COUNT>
0

> <PUBCHEM_ATOM_UDEF_STEREO_COUNT>
0

> <PUBCHEM_BOND_DEF_STEREO_COUNT>
0

> <PUBCHEM_BOND_UDEF_STEREO_COUNT>
0

> <PUBCHEM_ISOTOPIC_ATOM_COUNT>
0

> <PUBCHEM_COMPONENT_COUNT>
1

> <PUBCHEM_CACTVS_TAUTO_COUNT>
6

> <PUBCHEM_CONFORMER_ID>
0000012100000001

> <PUBCHEM_MMFF94_ENERGY>
17.416

> <PUBCHEM_FEATURE_SELFOVERLAP>
15.227

> <PUBCHEM_SHAPE_FINGERPRINT>
16714656 1 17907302044052260854
18185500 45 18124311863841961887
21040471 1 18338797922051597637
23552423 10 18261396671511714934
29004967 10 18116721909416247465

> <PUBCHEM_SHAPE_MULTIPOLES>
152.9
2.26
1.75
0.59
0.07
0
0
0
0
0.31
0
-0.05
0
0

> <PUBCHEM_SHAPE_SELFOVERLAP>
319.585

> <PUBCHEM_SHAPE_VOLUME>
86.9

> <PUBCHEM_COORDINATE_TYPE>
2
5
10

$$$$
785
  -OEChem-07292508423D

 14 14  0     0  0  0  0  0  0999 V2000
    2.7558    0.0000   -0.0001 O   0  0  0  0  0  0  0  0  0  0  0  0
   -2.7561   -0.0001   -0.0002 O   0  0  0  0  0  0  0  0  0  0  0  0
    1.3949    0.0000    0.0000 C   0  0  0  0  0  0  0  0  0  0  0  0
   -1.3948    0.0000    0.0001 C   0  0  0  0  0  0  0  0  0  0  0  0
    0.6976   -1.2080    0.0001 C   0  0  0  0  0  0  0  0  0  0  0  0
   -0.6973   -1.2080    0.0000 C   0  0  0  0  0  0  0  0  0  0  0  0
    0.6974    1.2080    0.0000 C   0  0  0  0  0  0  0  0  0  0  0  0
   -0.6975    1.2079    0.0001 C   0  0  0  0  0  0  0  0  0  0  0  0
    1.2354   -2.1522    0.0001 H   0  0  0  0  0  0  0  0  0  0  0  0
   -1.2288   -2.1559    0.0000 H   0  0  0  0  0  0  0  0  0  0  0  0
    1.2289    2.1559   -0.0001 H   0  0  0  0  0  0  0  0  0  0  0  0
   -1.2353    2.1521    0.0000 H   0  0  0  0  0  0  0  0  0  0  0  0
    3.0709    0.9202   -0.0001 H   0  0  0  0  0  0  0  0  0  0  0  0
   -3.0710   -0.9203   -0.0002 H   0  0  0  0  0  0  0  0  0  0  0  0
  1  3  1  0  0  0  0
  1 13  1  0  0  0  0
  2  4  1  0  0  0  0
  2 14  1  0  0  0  0
  3  5  2  0  0  0  0
  3  7  1  0  0  0  0
  4  6  2  0  0  0  0
  4  8  1  0  0  0  0
  5  6  1  0  0  0  0
  5  9  1  0  0  0  0
  6 10  1  0  0  0  0
  7  8  2  0  0  0  0
  7 11  1  0  0  0  0
  8 12  1  0  0  0  0
M  END
> <PUBCHEM_COMPOUND_CID>
785

> <PUBCHEM_CONFORMER_RMSD>
0.4

> <PUBCHEM_CONFORMER_DIVERSEORDER>
1

> <PUBCHEM_MMFF94_PARTIAL_CHARGES>
14
1 -0.53
10 0.15
11 0.15
12 0.15
13 0.45
14 0.45
2 -0.53
3 0.08
4 0.08
5 -0.15
6 -0.15
7 -0.15
8 -0.15
9 0.15

> <PUBCHEM_EFFECTIVE_ROTOR_COUNT>
0

> <PUBCHEM_PHARMACOPHORE_FEATURES>
3
1 1 donor
1 2 donor
6 3 4 5 6 7 8 rings

> <PUBCHEM_HEAVY_ATOM_COUNT>
8

> <PUBCHEM_ATOM_DEF_STEREO_COUNT>
0

> <PUBCHEM_ATOM_UDEF_STEREO_COUNT>
0

> <PUBCHEM_BOND_DEF_STEREO_COUNT>
0

> <PUBCHEM_BOND_UDEF_STEREO_COUNT>
0

> <PUBCHEM_ISOTOPIC_ATOM_COUNT>
0

> <PUBCHEM_COMPONENT_COUNT>
1

> <PUBCHEM_CACTVS_TAUTO_COUNT>
3

> <PUBCHEM_CONFORMER_ID>
0000031100000001

> <PUBCHEM_MMFF94_ENERGY>
17.2898

> <PUBCHEM_FEATURE_SELFOVERLAP>
15.223

> <PUBCHEM_SHAPE_FINGERPRINT>
16714656 1 18410858763158453070
18185500 45 18410852178794357127
20096714 4 18338799017194314155
21040471 1 18338517542185870531
23235685 24 18410853265399964484
23402655 69 18195508317802667005
23552423 10 18045228141510753006
29004967 10 18261399935618171313
5084963 1 18343864419966084017

> <PUBCHEM_SHAPE_MULTIPOLES>
152.9
2.84
1.38
0.59
0
0
0
0
0
0
0
0
0
0

> <PUBCHEM_SHAPE_SELFOVERLAP>
319.077

> <PUBCHEM_SHAPE_VOLUME>
86.6

> <PUBCHEM_COORDINATE_TYPE>
2
5
10

$$$$
4650
  -OEChem-07292508433D

 12 12  0     0  0  0  0  0  0999 V2000
    2.6606    0.0001    0.0010 O   0  0  0  0  0  0  0  0  0  0  0  0
   -2.6606    0.0001    0.0008 O   0  0  0  0  0  0  0  0  0  0  0  0
    1.4346   -0.0001   -0.0002 C   0  0  0  0  0  0  0  0  0  0  0  0
   -1.4346    0.0001    0.0000 C   0  0  0  0  0  0  0  0  0  0  0  0
   -0.6673    1.2628   -0.0004 C   0  0  0  0  0  0  0  0  0  0  0  0
    0.6673    1.2627   -0.0005 C   0  0  0  0  0  0  0  0  0  0  0  0
   -0.6674   -1.2628   -0.0003 C   0  0  0  0  0  0  0  0  0  0  0  0
    0.6673   -1.2628   -0.0005 C   0  0  0  0  0  0  0  0  0  0  0  0
   -1.2256    2.1922   -0.0004 H   0  0  0  0  0  0  0  0  0  0  0  0
   -1.2258   -2.1922   -0.0004 H   0  0  0  0  0  0  0  0  0  0  0  0
    1.2256    2.1921   -0.0005 H   0  0  0  0  0  0  0  0  0  0  0  0
    1.2256   -2.1922   -0.0006 H   0  0  0  0  0  0  0  0  0  0  0  0
  1  3  2  0  0  0  0
  2  4  2  0  0  0  0
  3  6  1  0  0  0  0
  3  8  1  0  0  0  0
  4  5  1  0  0  0  0
  4  7  1  0  0  0  0
  5  6  2  0  0  0  0
  5  9  1  0  0  0  0
  6 11  1  0  0  0  0
  7  8  2  0  0  0  0
  7 10  1  0  0  0  0
  8 12  1  0  0  0  0
M  END
> <PUBCHEM_COMPOUND_CID>
4650

> <PUBCHEM_CONFORMER_RMSD>
0.4

> <PUBCHEM_CONFORMER_DIVERSEORDER>
1

> <PUBCHEM_MMFF94_PARTIAL_CHARGES>
12
1 -0.57
10 0.15
11 0.15
12 0.15
2 -0.57
3 0.54
4 0.54
5 -0.14
6 -0.14
7 -0.14
8 -0.14
9 0.15

> <PUBCHEM_EFFECTIVE_ROTOR_COUNT>
0

> <PUBCHEM_PHARMACOPHORE_FEATURES>
3
1 1 acceptor
1 2 acceptor
6 3 4 5 6 7 8 rings

> <PUBCHEM_HEAVY_ATOM_COUNT>
8

> <PUBCHEM_ATOM_DEF_STEREO_COUNT>
0

> <PUBCHEM_ATOM_UDEF_STEREO_COUNT>
0

> <PUBCHEM_BOND_DEF_STEREO_COUNT>
0

> <PUBCHEM_BOND_UDEF_STEREO_COUNT>
0

> <PUBCHEM_ISOTOPIC_ATOM_COUNT>
0

> <PUBCHEM_COMPONENT_COUNT>
1

> <PUBCHEM_CACTVS_TAUTO_COUNT>
1

> <PUBCHEM_CONFORMER_ID>
0000122A00000001

> <PUBCHEM_MMFF94_ENERGY>
14.566

> <PUBCHEM_FEATURE_SELFOVERLAP>
15.223

> <PUBCHEM_SHAPE_FINGERPRINT>
16714656 1 18410858763153178310
18185500 45 18410852178799625383
20096714 4 18338516446990406515
21040471 1 18410574032406660390
23235685 24 18410853261105003684
23402655 69 18195226842815400357
23552423 10 18045228141500184014
29004967 10 18333739004632822897
5084963 1 18272651250858262065

> <PUBCHEM_SHAPE_MULTIPOLES>
152.9
2.75
1.45
0.59
0
0
0
0
0
0
0
0
0
0

> <PUBCHEM_SHAPE_SELFOVERLAP>
317.406

> <PUBCHEM_SHAPE_VOLUME>
86.4

> <PUBCHEM_COORDINATE_TYPE>
2
5
10

$$$$
284
  -OEChem-07292508453D

  5  4  0     0  0  0  0  0  0999 V2000
   -1.1685    0.1825    0.0000 O   0  0  0  0  0  0  0  0  0  0  0  0
    1.1146    0.2103    0.0000 O   0  0  0  0  0  0  0  0  0  0  0  0
    0.0538   -0.3927    0.0000 C   0  0  0  0  0  0  0  0  0  0  0  0
   -0.0511   -1.4875    0.0002 H   0  0  0  0  0  0  0  0  0  0  0  0
   -1.1142    1.1620    0.0000 H   0  0  0  0  0  0  0  0  0  0  0  0
  1  3  1  0  0  0  0
  1  5  1  0  0  0  0
  2  3  2  0  0  0  0
  3  4  1  0  0  0  0
M  END
> <PUBCHEM_COMPOUND_CID>
284

> <PUBCHEM_CONFORMER_RMSD>
0.4

> <PUBCHEM_CONFORMER_DIVERSEORDER>
1

> <PUBCHEM_MMFF94_PARTIAL_CHARGES>
5
1 -0.65
2 -0.57
3 0.66
4 0.06
5 0.5

> <PUBCHEM_EFFECTIVE_ROTOR_COUNT>
0

> <PUBCHEM_PHARMACOPHORE_FEATURES>
3
1 1 acceptor
1 2 acceptor
3 1 2 3 anion

> <PUBCHEM_HEAVY_ATOM_COUNT>
3

> <PUBCHEM_ATOM_DEF_STEREO_COUNT>
0

> <PUBCHEM_ATOM_UDEF_STEREO_COUNT>
0

> <PUBCHEM_BOND_DEF_STEREO_COUNT>
0

> <PUBCHEM_BOND_UDEF_STEREO_COUNT>
0

> <PUBCHEM_ISOTOPIC_ATOM_COUNT>
0

> <PUBCHEM_COMPONENT_COUNT>
1

> <PUBCHEM_CACTVS_TAUTO_COUNT>
1

> <PUBCHEM_CONFORMER_ID>
0000011C00000001

> <PUBCHEM_MMFF94_ENERGY>
1.6435

> <PUBCHEM_FEATURE_SELFOVERLAP>
15.278

> <PUBCHEM_SHAPE_FINGERPRINT>
139733 1 18410856568229821604
21015797 1 18047756180461364166

> <PUBCHEM_SHAPE_MULTIPOLES>
50
1.31
0.63
0.54
0.07
0.06
0
-0.17
0
-0.01
0
0
0.02
0

> <PUBCHEM_SHAPE_SELFOVERLAP>
80.997

> <PUBCHEM_SHAPE_VOLUME>
34.6

> <PUBCHEM_COORDINATE_TYPE>
2
5
10

$$$$
7847
  -OEChem-07292508463D

  8  7  0     0  0  0  0  0  0999 V2000
   -1.7478   -0.1165   -0.0002 O   0  0  0  0  0  0  0  0  0  0  0  0
    0.5936   -0.4363    0.0002 C   0  0  0  0  0  0  0  0  0  0  0  0
   -0.6303    0.3856    0.0002 C   0  0  0  0  0  0  0  0  0  0  0  0
    1.7844    0.1672   -0.0002 C   0  0  0  0  0  0  0  0  0  0  0  0
    0.4972   -1.5148    0.0003 H   0  0  0  0  0  0  0  0  0  0  0  0
   -0.4849    1.4788    0.0002 H   0  0  0  0  0  0  0  0  0  0  0  0
    2.6939   -0.4243   -0.0002 H   0  0  0  0  0  0  0  0  0  0  0  0
    1.8872    1.2469   -0.0004 H   0  0  0  0  0  0  0  0  0  0  0  0
  1  3  2  0  0  0  0
  2  3  1  0  0  0  0
  2  4  2  0  0  0  0
  2  5  1  0  0  0  0
  3  6  1  0  0  0  0
  4  7  1  0  0  0  0
  4  8  1  0  0  0  0
M  END
> <PUBCHEM_COMPOUND_CID>
7847

> <PUBCHEM_CONFORMER_RMSD>
0.4

> <PUBCHEM_CONFORMER_DIVERSEORDER>
1
2

> <PUBCHEM_MMFF94_PARTIAL_CHARGES>
8
1 -0.57
2 -0.14
3 0.5
4 -0.3
5 0.15
6 0.06
7 0.15
8 0.15

> <PUBCHEM_EFFECTIVE_ROTOR_COUNT>
1

> <PUBCHEM_PHARMACOPHORE_FEATURES>
2
1 1 acceptor
1 4 hydrophobe

> <PUBCHEM_HEAVY_ATOM_COUNT>
4

> <PUBCHEM_ATOM_DEF_STEREO_COUNT>
0

> <PUBCHEM_ATOM_UDEF_STEREO_COUNT>
0

> <PUBCHEM_BOND_DEF_STEREO_COUNT>
0

> <PUBCHEM_BOND_UDEF_STEREO_COUNT>
0

> <PUBCHEM_ISOTOPIC_ATOM_COUNT>
0

> <PUBCHEM_COMPONENT_COUNT>
1

> <PUBCHEM_CACTVS_TAUTO_COUNT>
1

> <PUBCHEM_CONFORMER_ID>
00001EA700000001

> <PUBCHEM_MMFF94_ENERGY>
1.8652

> <PUBCHEM_FEATURE_SELFOVERLAP>
10.148

> <PUBCHEM_SHAPE_FINGERPRINT>
139733 1 9223230749663399585
20096714 4 18341050804339485800
21015797 1 9150296840594769954
5460574 1 9295292737463381856

> <PUBCHEM_SHAPE_MULTIPOLES>
76.45
2.22
0.69
0.59
0.03
0
0
0.07
0
-0.05
0
-0.04
0
0

> <PUBCHEM_SHAPE_SELFOVERLAP>
131.457

> <PUBCHEM_SHAPE_VOLUME>
51

> <PUBCHEM_COORDINATE_TYPE>
2
5
10

$$$$
139405
  -OEChem-07292508483D

 10 10  0     0  0  0  0  0  0999 V2000
    2.0005   -0.0001    0.0002 O   0  0  0  0  0  0  0  0  0  0  0  0
    0.7838    0.0000   -0.0003 C   0  0  0  0  0  0  0  0  0  0  0  0
   -0.0741   -1.1970    0.0000 C   0  0  0  0  0  0  0  0  0  0  0  0
   -0.0740    1.1971   -0.0001 C   0  0  0  0  0  0  0  0  0  0  0  0
   -1.3181   -0.7160    0.0000 C   0  0  0  0  0  0  0  0  0  0  0  0
   -1.3181    0.7160    0.0002 C   0  0  0  0  0  0  0  0  0  0  0  0
    0.2576   -2.2197    0.0000 H   0  0  0  0  0  0  0  0  0  0  0  0
    0.2577    2.2198   -0.0001 H   0  0  0  0  0  0  0  0  0  0  0  0
   -2.2176   -1.3116    0.0002 H   0  0  0  0  0  0  0  0  0  0  0  0
   -2.2175    1.3118    0.0005 H   0  0  0  0  0  0  0  0  0  0  0  0
  1  2  2  0  0  0  0
  2  3  1  0  0  0  0
  2  4  1  0  0  0  0
  3  5  2  0  0  0  0
  3  7  1  0  0  0  0
  4  6  2  0  0  0  0
  4  8  1  0  0  0  0
  5  6  1  0  0  0  0
  5  9  1  0  0  0  0
  6 10  1  0  0  0  0
M  END
> <PUBCHEM_COMPOUND_CID>
139405

> <PUBCHEM_CONFORMER_RMSD>
0.4

> <PUBCHEM_CONFORMER_DIVERSEORDER>
1

> <PUBCHEM_MMFF94_PARTIAL_CHARGES>
10
1 -0.57
10 0.15
2 0.54
3 -0.14
4 -0.14
5 -0.15
6 -0.15
7 0.15
8 0.15
9 0.15

> <PUBCHEM_EFFECTIVE_ROTOR_COUNT>
0

> <PUBCHEM_PHARMACOPHORE_FEATURES>
2
1 1 acceptor
5 2 3 4 5 6 rings

> <PUBCHEM_HEAVY_ATOM_COUNT>
6

> <PUBCHEM_ATOM_DEF_STEREO_COUNT>
0

> <PUBCHEM_ATOM_UDEF_STEREO_COUNT>
0

> <PUBCHEM_BOND_DEF_STEREO_COUNT>
0

> <PUBCHEM_BOND_UDEF_STEREO_COUNT>
0

> <PUBCHEM_ISOTOPIC_ATOM_COUNT>
0

> <PUBCHEM_COMPONENT_COUNT>
1

> <PUBCHEM_CACTVS_TAUTO_COUNT>
1

> <PUBCHEM_CONFORMER_ID>
0002208D00000001

> <PUBCHEM_MMFF94_ENERGY>
10.3307

> <PUBCHEM_FEATURE_SELFOVERLAP>
10.148

> <PUBCHEM_SHAPE_FINGERPRINT>
16714656 1 18410865360207120780
20096714 4 18122908633432985664
21015797 1 9222068570278531979
21040471 1 18194402195259710113
29004967 10 18189341336526325619
5943 1 10756783766707256653

> <PUBCHEM_SHAPE_MULTIPOLES>
117.61
1.81
1.28
0.6
0.55
0
0
0
0
-0.24
0
-0.03
0
0

> <PUBCHEM_SHAPE_SELFOVERLAP>
246.316

> <PUBCHEM_SHAPE_VOLUME>
67.9

> <PUBCHEM_COORDINATE_TYPE>
2
5
10

$$$$
11199
  -OEChem-07292508493D

  7  6  0     0  0  0  0  0  0999 V2000
   -1.2048    0.2045    0.0000 O   0  0  0  0  0  0  0  0  0  0  0  0
    0.0133   -0.4159    0.0000 C   0  0  0  0  0  0  0  0  0  0  0  0
    1.1915    0.2114    0.0000 C   0  0  0  0  0  0  0  0  0  0  0  0
   -0.0776   -1.4934    0.0000 H   0  0  0  0  0  0  0  0  0  0  0  0
    2.1168   -0.3534    0.0000 H   0  0  0  0  0  0  0  0  0  0  0  0
    1.2484    1.2942    0.0000 H   0  0  0  0  0  0  0  0  0  0  0  0
   -1.8807   -0.4957    0.0000 H   0  0  0  0  0  0  0  0  0  0  0  0
  1  2  1  0  0  0  0
  1  7  1  0  0  0  0
  2  3  2  0  0  0  0
  2  4  1  0  0  0  0
  3  5  1  0  0  0  0
  3  6  1  0  0  0  0
M  END
> <PUBCHEM_COMPOUND_CID>
11199

> <PUBCHEM_CONFORMER_RMSD>
0.4

> <PUBCHEM_CONFORMER_DIVERSEORDER>
1

> <PUBCHEM_MMFF94_PARTIAL_CHARGES>
7
1 -0.53
2 -0.07
3 -0.3
4 0.15
5 0.15
6 0.15
7 0.45

> <PUBCHEM_EFFECTIVE_ROTOR_COUNT>
0

> <PUBCHEM_PHARMACOPHORE_FEATURES>
1
1 1 donor

> <PUBCHEM_HEAVY_ATOM_COUNT>
3

> <PUBCHEM_ATOM_DEF_STEREO_COUNT>
0

> <PUBCHEM_ATOM_UDEF_STEREO_COUNT>
0

> <PUBCHEM_BOND_DEF_STEREO_COUNT>
0

> <PUBCHEM_BOND_UDEF_STEREO_COUNT>
0

> <PUBCHEM_ISOTOPIC_ATOM_COUNT>
0

> <PUBCHEM_COMPONENT_COUNT>
1

> <PUBCHEM_CACTVS_TAUTO_COUNT>
2

> <PUBCHEM_CONFORMER_ID>
00002BBF00000001

> <PUBCHEM_MMFF94_ENERGY>
1.7345

> <PUBCHEM_FEATURE_SELFOVERLAP>
5.074

> <PUBCHEM_SHAPE_FINGERPRINT>
139733 1 18410856576904145732
21015797 1 18119811562670249446

> <PUBCHEM_SHAPE_MULTIPOLES>
55.87
1.47
0.67
0.58
0.03
0.04
0
-0.2
0
-0.02
0
-0.04
0.01
0

> <PUBCHEM_SHAPE_SELFOVERLAP>
89.071

> <PUBCHEM_SHAPE_VOLUME>
39.5

> <PUBCHEM_COORDINATE_TYPE>
2
5
10

$$$$
