end
 OpenBabel10282513463D

 18 17  0  0  0  0  0  0  0  0999 V2000
   -0.6303    2.9622    1.1755 C   0  0  0  0  0  0  0  0  0  0  0  0
   -0.1276   -2.3520   -0.1010 C   0  0  0  0  0  0  0  0  0  0  0  0
   -0.1121    0.6096    0.5653 C   0  0  0  0  0  2  0  0  0  0  0  0
    0.2261   -0.0054   -0.6433 C   0  0  0  0  0  0  0  0  0  0  0  0
   -1.6187    2.7371    1.5838 H   0  0  0  0  0  0  0  0  0  0  0  0
   -1.2148   -2.3083    0.0950 H   0  0  0  0  0  0  0  0  0  0  0  0
   -1.1170    0.5738    2.1941 H   0  0  0  0  0  0  0  0  0  0  0  0
   -1.0509   -0.6584    1.5556 H   0  0  0  0  0  0  0  0  0  0  0  0
   -0.6689    3.9755    0.6248 H   0  0  0  0  0  0  0  0  0  0  0  0
    0.0708   -3.3409   -0.5477 H   0  0  0  0  0  0  0  0  0  0  0  0
    0.0531    3.1109    2.0049 H   0  0  0  0  0  0  0  0  0  0  0  0
    0.3930   -2.3063    0.8626 H   0  0  0  0  0  0  0  0  0  0  0  0
    0.5812   -1.5227   -1.9005 H   0  0  0  0  0  0  0  0  0  0  0  0
   -0.4752    0.1066    1.7046 O   0  0  0  0  0  0  0  0  0  0  0  0
   -0.1834    1.9264    0.2701 N   0  0  0  0  0  0  0  0  0  0  0  0
    0.3054   -1.3152   -1.0064 N   0  0  0  0  0  0  0  0  0  0  0  0
    0.3187    2.1967   -0.9482 N   0  0  0  0  0  2  0  0  0  0  0  0
    0.5441    1.0026   -1.5150 N   0  0  0  0  0  0  0  0  0  0  0  0
  1  5  1  0  0  0  0
  1 11  1  0  0  0  0
  2  6  1  0  0  0  0
  2 12  1  0  0  0  0
  4  3  1  0  0  0  0
  8 14  1  0  0  0  0
  9  1  1  0  0  0  0
 10  2  1  0  0  0  0
 13 16  1  0  0  0  0
 14  7  1  0  0  0  0
 15  3  1  0  0  0  0
 15  1  1  0  0  0  0
 16  4  1  0  0  0  0
 16  2  1  0  0  0  0
 17 15  1  0  0  0  0
 18 17  1  0  0  0  0
 18  4  2  0  0  0  0
M  END
$$$$
end
 OpenBabel10282513463D

 18 18  0  0  0  0  0  0  0  0999 V2000
   -1.5530    0.0913   -0.6383 C   0  0  0  0  0  3  0  0  0  0  0  0
   -0.1513    0.3742   -0.0650 C   0  0  0  0  0  0  0  0  0  0  0  0
    0.0702   -0.4166   -2.2375 C   0  0  0  0  0  0  0  0  0  0  0  0
    0.0088    1.1791    1.2154 C   0  0  0  0  0  0  0  0  0  0  0  0
    0.3466   -0.2941    1.1946 C   0  0  0  0  0  0  0  0  0  0  0  0
    0.7452    0.4991   -1.2745 C   0  0  0  0  0  0  0  0  0  0  0  0
   -2.6354    1.7464    0.0084 H   0  0  0  0  0  0  0  0  0  0  0  0
   -2.1213   -0.5965   -0.0196 H   0  0  0  0  0  0  0  0  0  0  0  0
   -2.0552    1.9809   -1.4575 H   0  0  0  0  0  0  0  0  0  0  0  0
   -0.8780    1.4300    1.7812 H   0  0  0  0  0  0  0  0  0  0  0  0
   -0.2600   -1.0017    1.6954 H   0  0  0  0  0  0  0  0  0  0  0  0
    0.7623    1.5115   -1.6526 H   0  0  0  0  0  0  0  0  0  0  0  0
    0.8362    1.8927    1.2559 H   0  0  0  0  0  0  0  0  0  0  0  0
    1.4087   -0.5449    1.2053 H   0  0  0  0  0  0  0  0  0  0  0  0
    1.7689    0.1667   -1.1119 H   0  0  0  0  0  0  0  0  0  0  0  0
   -2.4037    1.2769   -0.9066 O   0  0  0  0  0  0  0  0  0  0  0  0
   -1.2912   -0.5128   -1.8936 O   0  0  0  0  0  0  0  0  0  0  0  0
    0.4817   -0.9672   -3.1896 O   0  0  0  0  0  0  0  0  0  0  0  0
  1  2  1  0  0  0  0
  1  8  1  0  0  0  0
  2  5  1  0  0  0  0
  2  4  1  0  0  0  0
  3 17  1  0  0  0  0
  3  6  1  0  0  0  0
  4 13  1  0  0  0  0
  4 10  1  0  0  0  0
  5 14  1  0  0  0  0
  5  4  1  0  0  0  0
  5 11  1  0  0  0  0
  6 15  1  0  0  0  0
  6  2  1  0  0  0  0
  9 16  1  0  0  0  0
 12  6  1  0  0  0  0
 16  7  1  0  0  0  0
 17  1  1  0  0  0  0
 18  3  2  0  0  0  0
M  END
$$$$
end
 OpenBabel10282513463D

 17 17  0  0  1  0  0  0  0  0999 V2000
   -1.9206   -0.2367    0.2006 C   0  0  0  0  0  0  0  0  0  0  0  0
    0.3047    1.6237   -0.1638 C   0  0  0  0  0  0  0  0  0  0  0  0
    0.4998    0.1451    0.2040 C   0  0  2  0  0  0  0  0  0  0  0  0
    0.9637   -0.0374    1.6048 C   0  0  0  0  0  0  0  0  0  0  0  0
    1.7678   -0.4138   -0.5423 C   0  0  0  0  0  0  0  0  0  0  0  0
    2.2657   -0.2954    1.6366 C   0  0  0  0  0  0  0  0  0  0  0  0
   -2.6163   -1.0723    0.0476 H   0  0  0  0  0  0  0  0  0  0  0  0
   -2.2757    0.6114   -0.4027 H   0  0  0  0  0  0  0  0  0  0  0  0
   -1.9518    0.0864    1.2434 H   0  0  0  0  0  0  0  0  0  0  0  0
   -0.4522    2.1025    0.4511 H   0  0  0  0  0  0  0  0  0  0  0  0
    0.0062    1.7066   -1.1995 H   0  0  0  0  0  0  0  0  0  0  0  0
    0.3157    0.0492    2.4538 H   0  0  0  0  0  0  0  0  0  0  0  0
    1.2363    2.1447   -0.0021 H   0  0  0  0  0  0  0  0  0  0  0  0
    2.9151   -0.4071    2.5052 H   0  0  0  0  0  0  0  0  0  0  0  0
   -0.6176   -0.7095   -0.1672 O   0  0  0  0  0  0  0  0  0  0  0  0
    1.8708   -0.8122   -1.6124 O   0  0  0  0  0  0  0  0  0  0  0  0
    2.8200   -0.3893    0.3594 O   0  0  0  0  0  0  0  0  0  0  0  0
  1  9  1  0  0  0  0
  2 13  1  0  0  0  0
  2  3  1  0  0  0  0
  2 10  1  0  0  0  0
  3 15  1  6  0  0  0
  3  4  1  0  0  0  0
  4  6  2  0  0  0  0
  4 12  1  0  0  0  0
  5  3  1  0  0  0  0
  5 17  1  0  0  0  0
  6 14  1  0  0  0  0
  7  1  1  0  0  0  0
  8  1  1  0  0  0  0
 11  2  1  0  0  0  0
 15  1  1  0  0  0  0
 16  5  2  0  0  0  0
 17  6  1  0  0  0  0
M  END
$$$$
end
 OpenBabel10282513463D

 19 19  0  0  1  0  0  0  0  0999 V2000
   -2.0001    0.5822    0.0646 C   0  0  0  0  0  0  0  0  0  0  0  0
   -1.2932   -1.7387    0.8468 C   0  0  1  0  0  3  0  0  0  0  0  0
   -0.9692   -0.3952    0.5596 C   0  0  2  0  0  3  0  0  0  0  0  0
    0.3921   -0.2333    0.9300 C   0  0  0  0  0  0  0  0  0  0  0  0
    0.6930   -1.3857    1.6369 C   0  0  0  0  0  0  0  0  0  0  0  0
    1.2959    0.8994    0.5878 C   0  0  0  0  0  0  0  0  0  0  0  0
    1.3780    1.3034   -0.8638 C   0  0  0  0  0  0  0  0  0  0  0  0
   -2.9334    0.4545    0.5385 H   0  0  0  0  0  0  0  0  0  0  0  0
   -2.1127   -3.3826    0.5524 H   0  0  0  0  0  0  0  0  0  0  0  0
   -2.1588    0.3814   -1.0274 H   0  0  0  0  0  0  0  0  0  0  0  0
   -1.6524    1.6113    0.1585 H   0  0  0  0  0  0  0  0  0  0  0  0
    0.3699    1.4648   -1.2567 H   0  0  0  0  0  0  0  0  0  0  0  0
    0.9100    1.7307    1.2321 H   0  0  0  0  0  0  0  0  0  0  0  0
    1.5445   -1.6752    2.2201 H   0  0  0  0  0  0  0  0  0  0  0  0
    1.8892    0.5133   -1.4037 H   0  0  0  0  0  0  0  0  0  0  0  0
    1.9163    2.2230   -0.9812 H   0  0  0  0  0  0  0  0  0  0  0  0
    2.2346    0.6893    0.9984 H   0  0  0  0  0  0  0  0  0  0  0  0
   -2.3393   -2.4494    0.4816 O   0  0  0  0  0  0  0  0  0  0  0  0
   -0.3107   -2.3350    1.5263 O   0  0  0  0  0  0  0  0  0  0  0  0
  1 11  1  0  0  0  0
  1  8  1  0  0  0  0
  2 18  1  6  0  0  0
  2 19  1  0  0  0  0
  3  1  1  1  0  0  0
  3  2  1  0  0  0  0
  3  4  1  0  0  0  0
  4  5  2  0  0  0  0
  5 14  1  0  0  0  0
  6  4  1  0  0  0  0
  6 17  1  0  0  0  0
  6 13  1  0  0  0  0
  7  6  1  0  0  0  0
 10  1  1  0  0  0  0
 12  7  1  0  0  0  0
 15  7  1  0  0  0  0
 16  7  1  0  0  0  0
 18  9  1  0  0  0  0
 19  5  1  0  0  0  0
M  END
$$$$
end
 OpenBabel10282513463D

 15 16  0  0  1  0  0  0  0  0999 V2000
   -0.5776    1.1941    1.0396 C   0  0  0  0  0  0  0  0  0  0  0  0
   -0.0953   -1.5706    0.8010 C   0  0  0  0  0  0  0  0  0  0  0  0
    0.5428   -0.3221    0.1265 C   0  0  1  0  0  0  0  0  0  0  0  0
    0.5606    0.2457    1.5943 C   0  0  2  0  0  0  0  0  0  0  0  0
    1.8132   -0.4101   -0.6190 C   0  0  0  0  0  0  0  0  0  0  0  0
    2.8322   -0.4289   -1.1967 C   0  0  0  0  0  0  0  0  0  0  0  0
   -1.5402    1.0797    1.5141 H   0  0  0  0  0  0  0  0  0  0  0  0
   -1.1515   -1.7104    0.5924 H   0  0  0  0  0  0  0  0  0  0  0  0
   -1.2500    0.3448   -0.7673 H   0  0  0  0  0  0  0  0  0  0  0  0
   -0.2338    2.2581    1.0902 H   0  0  0  0  0  0  0  0  0  0  0  0
    0.4503   -2.5039    0.6276 H   0  0  0  0  0  0  0  0  0  0  0  0
    1.4043    0.6504    2.1465 H   0  0  0  0  0  0  0  0  0  0  0  0
    3.7905   -0.4337   -1.6708 H   0  0  0  0  0  0  0  0  0  0  0  0
    0.0823   -1.0110    2.1338 O   0  0  0  0  0  0  0  0  0  0  0  0
   -0.3947    0.7200   -0.3455 N   0  0  0  0  0  0  0  0  0  0  0  0
  1 10  1  0  0  0  0
  1  7  1  0  0  0  0
  1  4  1  0  0  0  0
  2 14  1  0  0  0  0
  3  5  1  6  0  0  0
  3  2  1  0  0  0  0
  3  4  1  0  0  0  0
  4 14  1  0  0  0  0
  4 12  1  1  0  0  0
  6  5  3  0  0  0  0
  8  2  1  0  0  0  0
  9 15  1  0  0  0  0
 11  2  1  0  0  0  0
 13  6  1  0  0  0  0
 15  3  1  0  0  0  0
 15  1  1  0  0  0  0
M  END
$$$$
end
 OpenBabel10282513463D

 18 18  0  0  0  0  0  0  0  0999 V2000
   -1.2270   -1.6171    0.5953 C   0  0  0  0  0  0  0  0  0  0  0  0
   -0.9436   -2.8977    1.3923 C   0  0  0  0  0  0  0  0  0  0  0  0
    0.0371   -0.8052    0.4029 C   0  0  0  0  0  0  0  0  0  0  0  0
    0.2830    2.6040   -0.8659 C   0  0  0  0  0  0  0  0  0  0  0  0
    0.5498    1.4027   -0.2559 C   0  0  0  0  0  0  0  0  0  0  0  0
   -1.9832   -1.0209    1.1196 H   0  0  0  0  0  0  0  0  0  0  0  0
   -1.8212   -3.5895    1.3684 H   0  0  0  0  0  0  0  0  0  0  0  0
   -1.6113   -1.8739   -0.3770 H   0  0  0  0  0  0  0  0  0  0  0  0
   -0.7053   -2.6598    2.4220 H   0  0  0  0  0  0  0  0  0  0  0  0
   -0.5689    2.9274   -1.4301 H   0  0  0  0  0  0  0  0  0  0  0  0
   -0.1017   -3.4666    0.9392 H   0  0  0  0  0  0  0  0  0  0  0  0
    0.4925   -0.5646    1.3872 H   0  0  0  0  0  0  0  0  0  0  0  0
    0.8056   -1.2973   -0.1971 H   0  0  0  0  0  0  0  0  0  0  0  0
    3.2404    2.7311   -0.0462 H   0  0  0  0  0  0  0  0  0  0  0  0
   -0.3577    0.4040   -0.1919 O   0  0  0  0  0  0  0  0  0  0  0  0
    1.4139    3.3472   -0.7455 N   0  0  0  0  0  0  0  0  0  0  0  0
    1.7990    1.3287    0.1934 N   0  0  0  0  0  0  0  0  0  0  0  0
    2.3017    2.4679   -0.1453 N   0  0  0  0  0  0  0  0  0  0  0  0
  1  6  1  0  0  0  0
  1  2  1  0  0  0  0
  2  9  1  0  0  0  0
  3  1  1  0  0  0  0
  3 12  1  0  0  0  0
  4 16  2  0  0  0  0
  4  5  1  0  0  0  0
  5 15  1  0  0  0  0
  5 17  2  0  0  0  0
  7  2  1  0  0  0  0
  8  1  1  0  0  0  0
 10  4  1  0  0  0  0
 11  2  1  0  0  0  0
 13  3  1  0  0  0  0
 15  3  1  0  0  0  0
 16 18  1  0  0  0  0
 18 14  1  0  0  0  0
 18 17  1  0  0  0  0
M  END
$$$$
end
 OpenBabel10282513463D

 18 18  0  0  1  0  0  0  0  0999 V2000
   -1.5301    0.4720   -1.4686 C   0  0  0  0  0  0  0  0  0  0  0  0
   -0.2815   -0.3537   -1.1953 C   0  0  0  0  0  0  0  0  0  0  0  0
   -0.0831   -1.0706    1.2081 C   0  0  0  0  0  0  0  0  0  0  0  0
    0.4004   -0.0843    0.1507 C   0  0  1  0  0  0  0  0  0  0  0  0
    1.3558   -1.1128    0.7251 C   0  0  1  0  0  0  0  0  0  0  0  0
    2.4358   -0.6423    1.6904 C   0  0  0  0  0  0  0  0  0  0  0  0
   -2.2694    0.3306   -0.6678 H   0  0  0  0  0  0  0  0  0  0  0  0
   -1.9374    0.1748   -2.4315 H   0  0  0  0  0  0  0  0  0  0  0  0
   -1.2653    1.5444   -1.4905 H   0  0  0  0  0  0  0  0  0  0  0  0
   -0.7563   -1.8368    0.9036 H   0  0  0  0  0  0  0  0  0  0  0  0
   -0.2442   -0.6383    2.1974 H   0  0  0  0  0  0  0  0  0  0  0  0
    1.0946    1.6369   -0.2828 H   0  0  0  0  0  0  0  0  0  0  0  0
    1.6332   -1.8872    0.0282 H   0  0  0  0  0  0  0  0  0  0  0  0
    2.0967    0.1993    2.3263 H   0  0  0  0  0  0  0  0  0  0  0  0
    2.7411   -1.4899    2.3093 H   0  0  0  0  0  0  0  0  0  0  0  0
    3.2985   -0.3146    1.1388 H   0  0  0  0  0  0  0  0  0  0  0  0
    0.1176   -1.1980   -1.9207 O   0  0  0  0  0  0  0  0  0  0  0  0
    0.5938    1.2556    0.4269 O   0  0  0  0  0  0  0  0  0  0  0  0
  1  2  1  0  0  0  0
  1  7  1  0  0  0  0
  3 11  1  0  0  0  0
  4  2  1  6  0  0  0
  4 18  1  0  0  0  0
  4  5  1  0  0  0  0
  4  3  1  0  0  0  0
  5 13  1  6  0  0  0
  5  3  1  0  0  0  0
  5  6  1  0  0  0  0
  6 15  1  0  0  0  0
  6 14  1  0  0  0  0
  8  1  1  0  0  0  0
  9  1  1  0  0  0  0
 10  3  1  0  0  0  0
 12 18  1  0  0  0  0
 16  6  1  0  0  0  0
 17  2  2  0  0  0  0
M  END
$$$$
end
 OpenBabel10282513463D

 15 15  0  0  1  0  0  0  0  0999 V2000
   -0.8220   -0.7102    1.5793 C   0  0  0  0  0  0  0  0  0  0  0  0
   -0.5335   -1.0810   -0.9710 C   0  0  0  0  0  0  0  0  0  0  0  0
    1.0411    0.1851    0.0850 C   0  0  2  0  0  3  0  0  0  0  0  0
    1.3741    0.1278   -1.2707 C   0  0  0  0  0  0  0  0  0  0  0  0
   -1.6661   -2.1189   -2.1473 H   0  0  0  0  0  0  0  0  0  0  0  0
   -1.7613   -1.1874    1.4284 H   0  0  0  0  0  0  0  0  0  0  0  0
   -1.0161    0.2819    2.0444 H   0  0  0  0  0  0  0  0  0  0  0  0
   -0.2533   -1.3697    2.2369 H   0  0  0  0  0  0  0  0  0  0  0  0
    1.3140    1.3602    1.7423 H   0  0  0  0  0  0  0  0  0  0  0  0
    2.6520    0.5245    1.2996 H   0  0  0  0  0  0  0  0  0  0  0  0
    0.3925   -0.6843   -1.8823 O   0  0  0  0  0  0  0  0  0  0  0  0
    2.3011    0.6549   -1.9047 O   0  0  0  0  0  0  0  0  0  0  0  0
   -1.5549   -1.8868   -1.1693 N   0  0  0  0  0  0  0  0  0  0  0  0
   -0.0818   -0.5884    0.3838 N   0  0  0  0  0  0  0  0  0  0  0  0
    1.8223    1.0180    0.9262 N   0  0  0  0  0  0  0  0  0  0  0  0
  1  7  1  0  0  0  0
  1  8  1  0  0  0  0
  2 14  1  0  0  0  0
  3 14  1  0  0  0  0
  3 15  1  6  0  0  0
  4  3  1  0  0  0  0
  5 13  1  0  0  0  0
  6  1  1  0  0  0  0
 11  4  1  0  0  0  0
 11  2  1  0  0  0  0
 12  4  2  0  0  0  0
 13  2  2  0  0  0  0
 14  1  1  0  0  0  0
 15 10  1  0  0  0  0
 15  9  1  0  0  0  0
M  END
$$$$
end
 OpenBabel10282513463D

 12 12  0  0  0  0  0  0  0  0999 V2000
   -0.4796   -1.8062   -0.8518 C   0  0  0  0  0  0  0  0  0  0  0  0
   -0.4717    0.4134    2.0237 C   0  0  0  0  0  0  0  0  0  0  0  0
   -0.1972   -0.3107    0.8141 C   0  0  0  0  0  0  0  0  0  0  0  0
    0.3941   -0.8254   -1.3113 C   0  0  0  0  0  0  0  0  0  0  0  0
    0.5870    0.1045   -0.2721 C   0  0  0  0  0  0  0  0  0  0  0  0
   -1.2639    0.1151    2.6470 H   0  0  0  0  0  0  0  0  0  0  0  0
    0.8885   -0.7698   -2.2473 H   0  0  0  0  0  0  0  0  0  0  0  0
    1.0917    1.7683    0.4890 H   0  0  0  0  0  0  0  0  0  0  0  0
   -0.8989   -1.4432    0.4545 O   0  0  0  0  0  0  0  0  0  0  0  0
   -0.0730    1.5266    2.3304 O   0  0  0  0  0  0  0  0  0  0  0  0
    1.3563    1.2084   -0.2815 O   0  0  0  0  0  0  0  0  0  0  0  0
   -1.0218   -2.8606   -1.3852 F   0  0  0  0  0  0  0  0  0  0  0  0
  1  9  1  0  0  0  0
  2 10  2  0  0  0  0
  2  6  1  0  0  0  0
  3  2  1  0  0  0  0
  4  1  2  0  0  0  0
  4  5  1  0  0  0  0
  5  3  2  0  0  0  0
  7  4  1  0  0  0  0
  9  3  1  0  0  0  0
 11  5  1  0  0  0  0
 11  8  1  0  0  0  0
 12  1  1  0  0  0  0
M  END
$$$$
end
 OpenBabel10282513463D

 26 26  0  0  1  0  0  0  0  0999 V2000
   -2.9931   -2.6879    0.8908 C   0  0  0  0  0  3  0  0  0  0  0  0
   -1.8541   -1.9174    1.5942 C   0  0  0  0  0  0  0  0  0  0  0  0
   -1.0238   -1.0728    0.6076 C   0  0  0  0  0  0  0  0  0  0  0  0
    0.1500    0.9175    1.9312 C   0  0  0  0  0  0  0  0  0  0  0  0
    0.1791   -0.4233    1.2333 C   0  0  2  0  0  0  0  0  0  0  0  0
    0.7777    0.8221    0.6037 C   0  0  2  0  0  0  0  0  0  0  0  0
    2.1462    0.7007   -2.1387 C   0  0  0  0  0  0  0  0  0  0  0  0
    2.2779    0.8898    0.4137 C   0  0  0  0  0  0  0  0  0  0  0  0
    2.7429    0.1372   -0.8680 C   0  0  0  0  0  0  0  0  0  0  0  0
   -3.5556   -3.3554    1.5578 H   0  0  0  0  0  0  0  0  0  0  0  0
   -2.6003   -3.3388    0.0495 H   0  0  0  0  0  0  0  0  0  0  0  0
   -2.2816   -1.2683    2.3992 H   0  0  0  0  0  0  0  0  0  0  0  0
   -1.6785   -0.2790    0.2088 H   0  0  0  0  0  0  0  0  0  0  0  0
   -1.1884   -2.6499    2.0691 H   0  0  0  0  0  0  0  0  0  0  0  0
   -0.7255   -1.6736   -0.2480 H   0  0  0  0  0  0  0  0  0  0  0  0
   -0.8272    1.3909    2.0274 H   0  0  0  0  0  0  0  0  0  0  0  0
    0.2004    1.2609   -0.2081 H   0  0  0  0  0  0  0  0  0  0  0  0
    0.8915   -1.1171    1.6340 H   0  0  0  0  0  0  0  0  0  0  0  0
    0.8079    1.0885    2.7791 H   0  0  0  0  0  0  0  0  0  0  0  0
    1.0935    0.4541   -2.2917 H   0  0  0  0  0  0  0  0  0  0  0  0
    2.2465    1.7911   -2.1649 H   0  0  0  0  0  0  0  0  0  0  0  0
    2.4900   -0.9229   -0.7896 H   0  0  0  0  0  0  0  0  0  0  0  0
    2.6264    1.9176    0.3605 H   0  0  0  0  0  0  0  0  0  0  0  0
    2.6667    0.3278   -3.0031 H   0  0  0  0  0  0  0  0  0  0  0  0
    2.7766    0.4295    1.2849 H   0  0  0  0  0  0  0  0  0  0  0  0
    3.8726    0.1636   -0.9088 H   0  0  0  0  0  0  0  0  0  0  0  0
  1 10  1  0  0  0  0
  1  2  1  0  0  0  0
  2 14  1  0  0  0  0
  2 12  1  0  0  0  0
  3  5  1  0  0  0  0
  3  2  1  0  0  0  0
  4 16  1  0  0  0  0
  4 19  1  0  0  0  0
  5 18  1  1  0  0  0
  5  4  1  0  0  0  0
  6 17  1  6  0  0  0
  6  5  1  0  0  0  0
  6  4  1  0  0  0  0
  7  9  1  0  0  0  0
  8  6  1  0  0  0  0
  8 25  1  0  0  0  0
  9 22  1  0  0  0  0
  9  8  1  0  0  0  0
 11  1  1  0  0  0  0
 13  3  1  0  0  0  0
 15  3  1  0  0  0  0
 20  7  1  0  0  0  0
 21  7  1  0  0  0  0
 23  8  1  0  0  0  0
 24  7  1  0  0  0  0
 26  9  1  0  0  0  0
M  END
$$$$
end
 OpenBabel10282513463D

 25 25  0  0  1  0  0  0  0  0999 V2000
   -0.4181   -2.1917   -1.6739 C   0  0  0  0  0  0  0  0  0  0  0  0
   -0.3496   -1.1174   -0.6103 C   0  0  2  0  0  0  0  0  0  0  0  0
    0.2627    0.1668   -1.1763 C   0  0  0  0  0  0  0  0  0  0  0  0
    0.2593    1.2637   -0.1355 C   0  0  0  0  0  0  0  0  0  0  0  0
    0.4127   -1.5980    0.6375 C   0  0  0  0  0  0  0  0  0  0  0  0
    0.5602   -0.4965    1.6671 C   0  0  0  0  0  0  0  0  0  0  0  0
    1.0887    0.8495    1.0814 C   0  0  2  0  0  0  0  0  0  0  0  0
    1.1215    1.9262    2.1465 C   0  0  0  0  0  0  0  0  0  0  0  0
   -1.3487   -0.8602   -0.2982 H   0  0  0  0  0  0  0  0  0  0  0  0
   -0.9250   -3.0856   -1.3103 H   0  0  0  0  0  0  0  0  0  0  0  0
   -1.0152   -1.8442   -2.5456 H   0  0  0  0  0  0  0  0  0  0  0  0
   -0.7663    1.4971    0.1564 H   0  0  0  0  0  0  0  0  0  0  0  0
   -0.4342   -0.3235    2.1369 H   0  0  0  0  0  0  0  0  0  0  0  0
   -0.2961    0.5024   -2.0767 H   0  0  0  0  0  0  0  0  0  0  0  0
   -0.0919   -2.4597    1.0847 H   0  0  0  0  0  0  0  0  0  0  0  0
    0.0952    2.1820    2.4392 H   0  0  0  0  0  0  0  0  0  0  0  0
    0.5666   -2.4435   -2.0484 H   0  0  0  0  0  0  0  0  0  0  0  0
    0.6992    2.1819   -0.5270 H   0  0  0  0  0  0  0  0  0  0  0  0
    1.2416   -0.8101    2.4326 H   0  0  0  0  0  0  0  0  0  0  0  0
    1.2748   -0.0554   -1.5130 H   0  0  0  0  0  0  0  0  0  0  0  0
    1.4258   -1.9418    0.3356 H   0  0  0  0  0  0  0  0  0  0  0  0
    1.6215    1.5293    3.0469 H   0  0  0  0  0  0  0  0  0  0  0  0
    2.1140    0.6530    0.7521 H   0  0  0  0  0  0  0  0  0  0  0  0
    2.0589    3.6254    2.3294 H   0  0  0  0  0  0  0  0  0  0  0  0
    1.8301    3.0047    1.6034 O   0  0  0  0  0  0  0  0  0  0  0  0
  1 10  1  0  0  0  0
  1  2  1  0  0  0  0
  2  9  1  1  0  0  0
  2  5  1  0  0  0  0
  3  2  1  0  0  0  0
  3  4  1  0  0  0  0
  4 12  1  0  0  0  0
  4  7  1  0  0  0  0
  5 15  1  0  0  0  0
  5  6  1  0  0  0  0
  6 13  1  0  0  0  0
  6 19  1  0  0  0  0
  7 23  1  6  0  0  0
  7  6  1  0  0  0  0
  7  8  1  0  0  0  0
  8 16  1  0  0  0  0
  8 22  1  0  0  0  0
 11  1  1  0  0  0  0
 14  3  1  0  0  0  0
 17  1  1  0  0  0  0
 18  4  1  0  0  0  0
 20  3  1  0  0  0  0
 21  5  1  0  0  0  0
 25  8  1  0  0  0  0
 25 24  1  0  0  0  0
M  END
$$$$
end
 OpenBabel10282513463D

 15 13  0  0  0  0  0  0  0  0999 V2000
   -2.0626    0.3849   -1.2052 C   0  0  0  0  0  0  0  0  0  0  0  0
   -0.6157    0.2499   -0.7415 C   0  0  0  0  0  2  0  0  0  0  0  0
    1.1422   -0.5990    0.1625 C   0  0  0  0  0  0  0  0  0  0  0  0
    2.1153   -1.4821    0.7575 C   0  0  0  0  0  0  0  0  0  0  0  0
    2.7569    1.2901   -0.0192 C   0  0  0  0  0  0  0  0  0  0  0  0
   -2.7176    0.5957   -0.3650 H   0  0  0  0  0  0  0  0  0  0  0  0
   -2.3681   -0.5334   -1.7007 H   0  0  0  0  0  0  0  0  0  0  0  0
   -2.1609    1.1998   -1.9114 H   0  0  0  0  0  0  0  0  0  0  0  0
    0.4433    2.0781   -1.4680 H   0  0  0  0  0 15  0  0  0  0  0  0
    2.6289    1.7803    0.9649 H   0  0  0  0  0  0  0  0  0  0  0  0
    2.9273    2.0666   -0.7060 H   0  0  0  0  0  0  0  0  0  0  0  0
    3.5405    0.5988    0.1429 H   0  0  0  0  0  0  0  0  0  0  0  0
   -0.1691   -0.8592   -0.0871 N   0  0  0  0  0  2  0  0  0  0  0  0
    1.4962    0.6587   -0.2495 N   0  0  0  0  0  0  0  0  0  0  0  0
    2.9202   -2.1696    1.2325 N   0  0  0  0  0  0  0  0  0  0  0  0
  1  2  1  0  0  0  0
  1  6  1  0  0  0  0
  2 13  1  0  0  0  0
  3  4  1  0  0  0  0
  4 15  3  0  0  0  0
  5 12  1  0  0  0  0
  5 10  1  0  0  0  0
  7  1  1  0  0  0  0
  8  1  1  0  0  0  0
 11  5  1  0  0  0  0
 13  3  1  0  0  0  0
 14  5  1  0  0  0  0
 14  3  2  0  0  0  0
M  END
$$$$
end
 OpenBabel10282513463D

 18 18  0  0  0  0  0  0  0  0999 V2000
   -2.6162   -0.4020    0.1268 C   0  0  0  0  0  0  0  0  0  0  0  0
   -1.4787   -0.5221    1.1761 C   0  0  0  0  0  0  0  0  0  0  0  0
   -0.1147   -0.6128    0.5568 C   0  0  0  0  0  0  0  0  0  0  0  0
    0.2829   -0.1990   -0.7025 C   0  0  0  0  0  0  0  0  0  0  0  0
    1.6325   -0.4782   -0.7777 C   0  0  0  0  0  0  0  0  0  0  0  0
    2.5849   -0.2176   -1.8491 C   0  0  0  0  0  0  0  0  0  0  0  0
   -3.6252   -0.3300    0.6392 H   0  0  0  0  0  0  0  0  0  0  0  0
   -2.6343   -1.2896   -0.5348 H   0  0  0  0  0  0  0  0  0  0  0  0
   -2.4765    0.4606   -0.4970 H   0  0  0  0  0  0  0  0  0  0  0  0
   -1.6282   -1.3724    1.8151 H   0  0  0  0  0  0  0  0  0  0  0  0
   -1.5132    0.3738    1.8218 H   0  0  0  0  0  0  0  0  0  0  0  0
   -0.3219    0.2524   -1.4797 H   0  0  0  0  0  0  0  0  0  0  0  0
    2.0847    0.3129   -2.6437 H   0  0  0  0  0  0  0  0  0  0  0  0
    2.8684   -1.2817    0.7615 H   0  0  0  0  0  0  0  0  0  0  0  0
    2.9239   -1.1704   -2.2670 H   0  0  0  0  0  0  0  0  0  0  0  0
    3.7431    0.4320   -1.4182 O   0  0  0  0  0  1  0  0  0  0  0  0
    0.9013   -1.1452    1.2503 N   0  0  0  0  0  0  0  0  0  0  0  0
    1.9513   -1.0024    0.4193 N   0  0  0  0  0  0  0  0  0  0  0  0
  1  7  1  0  0  0  0
  1  2  1  0  0  0  0
  2 10  1  0  0  0  0
  2 11  1  0  0  0  0
  3  2  1  0  0  0  0
  3 17  2  0  0  0  0
  4  3  1  0  0  0  0
  5  4  2  0  0  0  0
  5 18  1  0  0  0  0
  6 16  1  0  0  0  0
  6  5  1  0  0  0  0
  8  1  1  0  0  0  0
  9  1  1  0  0  0  0
 12  4  1  0  0  0  0
 13  6  1  0  0  0  0
 15  6  1  0  0  0  0
 18 14  1  0  0  0  0
 18 17  1  0  0  0  0
M  END
$$$$
end
 OpenBabel10282513463D

 21 20  0  0  1  0  0  0  0  0999 V2000
   -1.9786   -3.0567   -0.2560 C   0  0  0  0  0  3  0  0  0  0  0  0
   -1.0754   -2.1384    0.3180 C   0  0  0  0  0  2  0  0  0  0  0  0
    0.0862    1.4770   -0.6248 C   0  0  0  0  0  0  0  0  0  0  0  0
    0.2925    2.6374   -1.6186 C   0  0  0  0  0  0  0  0  0  0  0  0
    0.9360   -0.8248    0.2317 C   0  0  1  0  0  0  0  0  0  0  0  0
    1.1239    0.3557   -0.7692 C   0  0  0  0  0  0  0  0  0  0  0  0
    1.1636   -0.3849    1.6873 C   0  0  0  0  0  0  0  0  0  0  0  0
   -2.9011   -2.4144   -0.2599 H   0  0  0  0  0  0  0  0  0  0  0  0
   -1.6335   -3.1343   -1.3063 H   0  0  0  0  0  0  0  0  0  0  0  0
   -0.9026    1.0688   -0.8134 H   0  0  0  0  0  0  0  0  0  0  0  0
   -0.4789    3.3899   -1.4509 H   0  0  0  0  0  0  0  0  0  0  0  0
    0.0954    1.8780    0.3904 H   0  0  0  0  0  0  0  0  0  0  0  0
    0.3253    2.2775   -2.6322 H   0  0  0  0  0  0  0  0  0  0  0  0
    0.4236    0.3650    2.0258 H   0  0  0  0  0  0  0  0  0  0  0  0
    1.0799   -1.2552    2.3383 H   0  0  0  0  0  0  0  0  0  0  0  0
    1.0687   -0.0736   -1.7728 H   0  0  0  0  0  0  0  0  0  0  0  0
    1.2669    3.1524   -1.3672 H   0  0  0  0  0  0  0  0  0  0  0  0
    1.7167   -1.5459   -0.0204 H   0  0  0  0  0  0  0  0  0  0  0  0
    2.1556    0.0662    1.7871 H   0  0  0  0  0  0  0  0  0  0  0  0
    2.1331    0.7818   -0.6521 H   0  0  0  0  0  0  0  0  0  0  0  0
   -0.3270   -1.3655    0.0474 O   0  0  0  0  0  0  0  0  0  0  0  0
  1  2  1  0  0  0  0
  3 12  1  0  0  0  0
  4 11  1  0  0  0  0
  4 17  1  0  0  0  0
  4  3  1  0  0  0  0
  5 18  1  6  0  0  0
  5  7  1  0  0  0  0
  6 20  1  0  0  0  0
  6  3  1  0  0  0  0
  6  5  1  0  0  0  0
  7 19  1  0  0  0  0
  7 14  1  0  0  0  0
  7 15  1  0  0  0  0
  8  1  1  0  0  0  0
  9  1  1  0  0  0  0
 10  3  1  0  0  0  0
 13  4  1  0  0  0  0
 16  6  1  0  0  0  0
 21  5  1  0  0  0  0
 21  2  1  0  0  0  0
M  END
$$$$
end
 OpenBabel10282513463D

 17 17  0  0  1  0  0  0  0  0999 V2000
   -1.3544    0.6158    1.0066 C   0  0  0  0  0  0  0  0  0  0  0  0
   -0.1444   -1.6359   -0.7656 C   0  0  0  0  0  0  0  0  0  0  0  0
    0.1619    0.3407    0.9868 C   0  0  1  0  0  0  0  0  0  0  0  0
    0.7066   -0.4970   -0.2062 C   0  0  1  0  0  0  0  0  0  0  0  0
    0.9717    1.4671    0.2883 C   0  0  0  0  0  0  0  0  0  0  0  0
    2.1187   -0.9852   -0.0013 C   0  0  0  0  0  0  0  0  0  0  0  0
   -1.9104   -0.2646    1.3334 H   0  0  0  0  0  0  0  0  0  0  0  0
   -1.7187    0.9060    0.0112 H   0  0  0  0  0  0  0  0  0  0  0  0
   -1.5613    1.4176    1.7444 H   0  0  0  0  0  0  0  0  0  0  0  0
   -1.0902   -1.2089   -1.1270 H   0  0  0  0  0  0  0  0  0  0  0  0
   -0.3963   -2.3591    0.0330 H   0  0  0  0  0  0  0  0  0  0  0  0
    0.3601   -2.1585   -1.5447 H   0  0  0  0  0  0  0  0  0  0  0  0
    0.4678    0.0391    2.0042 H   0  0  0  0  0  0  0  0  0  0  0  0
    0.4964    2.4278    0.2222 H   0  0  0  0  0  0  0  0  0  0  0  0
    1.9791    1.5135    0.6416 H   0  0  0  0  0  0  0  0  0  0  0  0
    0.8941    0.7488   -0.9824 O   0  0  0  0  0  0  0  0  0  0  0  0
    3.1972   -1.2308   -0.0325 N   0  0  0  0  0  0  0  0  0  0  0  0
  1  7  1  0  0  0  0
  1  9  1  0  0  0  0
  2  4  1  0  0  0  0
  2 11  1  0  0  0  0
  3  1  1  0  0  0  0
  3 13  1  1  0  0  0
  4  6  1  1  0  0  0
  4  3  1  0  0  0  0
  5 15  1  0  0  0  0
  5  3  1  0  0  0  0
  8  1  1  0  0  0  0
 10  2  1  0  0  0  0
 12  2  1  0  0  0  0
 14  5  1  0  0  0  0
 16  4  1  0  0  0  0
 16  5  1  0  0  0  0
 17  6  3  0  0  0  0
M  END
$$$$
end
 OpenBabel10282513463D

 18 19  0  0  1  0  0  0  0  0999 V2000
   -1.2914    0.6619    0.7785 C   0  0  0  0  0  0  0  0  0  0  0  0
   -0.7034    1.5474   -1.6517 C   0  0  0  0  0  0  0  0  0  0  0  0
   -0.4808   -1.4347   -0.3321 C   0  0  2  0  0  0  0  0  0  0  0  0
   -0.4593   -0.6117    1.0011 C   0  0  1  0  0  0  0  0  0  0  0  0
   -0.2244    1.1366   -0.2793 C   0  0  2  0  0  0  0  0  0  0  0  0
    0.4556   -0.2633   -0.1262 C   0  0  2  0  0  0  0  0  0  0  0  0
   -2.2953    0.5204    0.3794 H   0  0  0  0  0  0  0  0  0  0  0  0
   -1.4368    0.8368   -2.0671 H   0  0  0  0  0  0  0  0  0  0  0  0
   -1.3291    1.2949    1.6619 H   0  0  0  0  0  0  0  0  0  0  0  0
   -1.2005    2.5180   -1.5620 H   0  0  0  0  0  0  0  0  0  0  0  0
   -0.2533   -1.0712    1.9572 H   0  0  0  0  0  0  0  0  0  0  0  0
    0.0264   -2.3846   -0.2823 H   0  0  0  0  0  0  0  0  0  0  0  0
    0.1236    1.6334   -2.3495 H   0  0  0  0  0  0  0  0  0  0  0  0
    1.3832    2.1539   -0.1931 H   0  0  0  0  0  0  0  0  0  0  0  0
    2.1763    0.3296    0.3355 H   0  0  0  0  0  0  0  0  0  0  0  0
   -1.5857   -1.4727   -1.0566 O   0  0  0  0  0  1  0  0  0  0  0  0
    0.5841    2.1033    0.3285 O   0  0  0  0  0  0  0  0  0  0  0  0
    1.8102   -0.3866   -0.2177 O   0  0  0  0  0  0  0  0  0  0  0  0
  1  4  1  0  0  0  0
  1  9  1  0  0  0  0
  2 10  1  0  0  0  0
  2  5  1  0  0  0  0
  3 12  1  1  0  0  0
  3  6  1  0  0  0  0
  3  4  1  0  0  0  0
  4 11  1  1  0  0  0
  5  6  1  0  0  0  0
  5 17  1  1  0  0  0
  5  1  1  0  0  0  0
  6 18  1  1  0  0  0
  6  4  1  0  0  0  0
  7  1  1  0  0  0  0
  8  2  1  0  0  0  0
 13  2  1  0  0  0  0
 14 17  1  0  0  0  0
 16  3  1  0  0  0  0
 18 15  1  0  0  0  0
M  END
$$$$
end
 OpenBabel10282513463D

 18 18  0  0  1  0  0  0  0  0999 V2000
   -1.3131    1.1876    1.3173 C   0  0  0  0  0  0  0  0  0  0  0  0
    0.2130   -0.3266    0.2358 C   0  0  1  0  0  3  0  0  0  0  0  0
    0.1994    1.9763   -0.4483 C   0  0  0  0  0  0  0  0  0  0  0  0
    0.6700   -0.9481    1.3911 C   0  0  0  0  0  3  0  0  0  0  0  0
    1.6904   -1.8559   -0.5036 C   0  0  0  0  0  0  0  0  0  0  0  0
    1.6998   -1.8009    1.0769 C   0  0  0  0  0  3  0  0  0  0  0  0
   -1.8727    0.3593    1.6832 H   0  0  0  0  0  0  0  0  0  0  0  0
   -2.0361    1.9898    1.0914 H   0  0  0  0  0  0  0  0  0  0  0  0
   -0.6423    1.5308    2.1433 H   0  0  0  0  0  0  0  0  0  0  0  0
   -0.4597    2.8244   -0.6110 H   0  0  0  0  0  0  0  0  0  0  0  0
    0.3067   -0.7934    2.3991 H   0  0  0  0  0  0  0  0  0  0  0  0
    0.4976   -0.6936   -1.8606 H   0  0  0  0  0  0  0  0  0  0  0  0
    0.6715    1.6971   -1.3790 H   0  0  0  0  0  0  0  0  0  0  0  0
    0.9692    2.2553    0.2670 H   0  0  0  0  0  0  0  0  0  0  0  0
    2.4188   -2.2127    1.7401 H   0  0  0  0  0  0  0  0  0  0  0  0
    2.2813   -2.5503   -1.4497 O   0  0  0  0  0  0  0  0  0  0  0  0
   -0.5835    0.8657    0.1166 N   0  0  0  0  0  0  0  0  0  0  0  0
    0.7545   -0.8762   -0.8531 N   0  0  0  0  0  0  0  0  0  0  0  0
  1  7  1  0  0  0  0
  1  9  1  0  0  0  0
  2 17  1  1  0  0  0
  2  4  1  0  0  0  0
  3 17  1  0  0  0  0
  3 14  1  0  0  0  0
  4 11  1  0  0  0  0
  5  6  1  0  0  0  0
  6  4  1  0  0  0  0
  6 15  1  0  0  0  0
  8  1  1  0  0  0  0
 10  3  1  0  0  0  0
 12 18  1  0  0  0  0
 13  3  1  0  0  0  0
 16  5  2  0  0  0  0
 17  1  1  0  0  0  0
 18  5  1  0  0  0  0
 18  2  1  0  0  0  0
M  END
$$$$
end
 OpenBabel10282513463D

 20 21  0  0  1  0  0  0  0  0999 V2000
   -2.1288   -1.8015   -3.0274 C   0  0  0  0  0  3  0  0  0  0  0  0
   -1.2594   -1.3203   -1.9523 C   0  0  0  0  0  0  0  0  0  0  0  0
   -0.5365   -0.9325   -1.0859 C   0  0  0  0  0  0  0  0  0  0  0  0
   -0.1521   -0.2829    1.4477 C   0  0  0  0  0  0  0  0  0  0  0  0
    0.3026   -0.3900   -0.0434 C   0  0  2  0  0  0  0  0  0  0  0  0
    0.8544    1.0888   -0.1541 C   0  0  0  0  0  0  0  0  0  0  0  0
    1.3729   -0.2156    1.7331 C   0  0  1  0  0  0  0  0  0  0  0  0
    1.5547   -1.1413    0.4990 C   0  0  0  0  0  0  0  0  0  0  0  0
    1.6563    1.1742    1.1493 C   0  0  0  0  0  0  0  0  0  0  0  0
   -2.9123   -2.4536   -2.6376 H   0  0  0  0  0  0  0  0  0  0  0  0
   -2.6439   -1.0044   -3.6250 H   0  0  0  0  0  0  0  0  0  0  0  0
   -0.6484   -1.1697    1.8696 H   0  0  0  0  0  0  0  0  0  0  0  0
   -0.8209    0.5595    1.7225 H   0  0  0  0  0  0  0  0  0  0  0  0
   -0.0088    1.8074   -0.2672 H   0  0  0  0  0  0  0  0  0  0  0  0
    1.3672   -2.2011    0.7265 H   0  0  0  0  0  0  0  0  0  0  0  0
    1.3683    1.9832    1.8154 H   0  0  0  0  0  0  0  0  0  0  0  0
    1.4610    1.2472   -1.0877 H   0  0  0  0  0  0  0  0  0  0  0  0
    1.7980   -0.4560    2.6748 H   0  0  0  0  0  0  0  0  0  0  0  0
    2.4982   -1.0656   -0.0654 H   0  0  0  0  0  0  0  0  0  0  0  0
    2.7252    1.3238    0.9274 H   0  0  0  0  0  0  0  0  0  0  0  0
  1 10  1  0  0  0  0
  1  2  1  0  0  0  0
  2  3  3  0  0  0  0
  4 13  1  0  0  0  0
  4  7  1  0  0  0  0
  4 12  1  0  0  0  0
  5  3  1  6  0  0  0
  5  8  1  0  0  0  0
  5  4  1  0  0  0  0
  6  5  1  0  0  0  0
  6  9  1  0  0  0  0
  7 18  1  1  0  0  0
  8 15  1  0  0  0  0
  8  7  1  0  0  0  0
  9  7  1  0  0  0  0
  9 16  1  0  0  0  0
 11  1  1  0  0  0  0
 14  6  1  0  0  0  0
 17  6  1  0  0  0  0
 19  8  1  0  0  0  0
 20  9  1  0  0  0  0
M  END
$$$$
end
 OpenBabel10282513463D

 17 16  0  0  0  0  0  0  0  0999 V2000
   -0.5435    2.2793   -1.1320 C   0  0  0  0  0  0  0  0  0  0  0  0
   -0.1268    3.6985   -0.9688 C   0  0  0  0  0  2  0  0  0  0  0  0
   -0.0034   -0.1602   -0.6561 C   0  0  0  0  0  0  0  0  0  0  0  0
    0.3267    1.3033   -0.3539 C   0  0  0  0  0  0  0  0  0  0  0  0
    0.4663   -2.2625    0.2385 C   0  0  0  0  0  0  0  0  0  0  0  0
    1.3338   -3.2105    1.0618 C   0  0  0  0  0  2  0  0  0  0  0  0
   -1.5873    2.1709   -0.8365 H   0  0  0  0  0  0  0  0  0  0  0  0
   -1.0672   -0.3678   -0.4393 H   0  0  0  0  0  0  0  0  0  0  0  0
   -0.4660   -2.3501    0.7903 H   0  0  0  0  0  0  0  0  0  0  0  0
   -0.4685    2.0619   -2.2215 H   0  0  0  0  0  0  0  0  0  0  0  0
    0.1445   -0.3993   -1.7163 H   0  0  0  0  0  0  0  0  0  0  0  0
    0.1453    1.4801    0.7125 H   0  0  0  0  0  0  0  0  0  0  0  0
    0.3725   -2.7212   -0.7480 H   0  0  0  0  0  0  0  0  0  0  0  0
    0.8461    4.0237   -0.9609 H   0  0  0  0  0  0  0  0  0  0  0  0
    1.3845    1.4892   -0.5588 H   0  0  0  0  0  0  0  0  0  0  0  0
    0.8739   -0.9457    0.1416 O   0  0  0  0  0  0  0  0  0  0  0  0
    1.8841   -2.6039    1.8808 F   0  0  0  0  0  0  0  0  0  0  0  0
  1  2  1  0  0  0  0
  1  7  1  0  0  0  0
  1  4  1  0  0  0  0
  2 14  1  0  0  0  0
  3  8  1  0  0  0  0
  3  4  1  0  0  0  0
  3 16  1  0  0  0  0
  4 12  1  0  0  0  0
  5  9  1  0  0  0  0
  5  6  1  0  0  0  0
  6 17  1  0  0  0  0
 10  1  1  0  0  0  0
 11  3  1  0  0  0  0
 13  5  1  0  0  0  0
 15  4  1  0  0  0  0
 16  5  1  0  0  0  0
M  END
$$$$
end
 OpenBabel10282513463D

 23 22  0  0  1  0  0  0  0  0999 V2000
   -1.5424    0.4449   -1.4079 C   0  0  0  0  0  0  0  0  0  0  0  0
   -0.9415   -0.1606    0.9222 C   0  0  0  0  0  0  0  0  0  0  0  0
   -0.3540    0.2278   -0.4489 C   0  0  1  0  0  0  0  0  0  0  0  0
    0.5634   -0.8899   -1.0450 C   0  0  0  0  0  0  0  0  0  0  0  0
    0.4205    1.5166   -0.2734 C   0  0  0  0  0  0  0  0  0  0  0  0
    1.0325    2.1750   -1.5033 C   0  0  0  0  0  0  0  0  0  0  0  0
    1.9022   -1.1012   -0.3224 C   0  0  0  0  0  0  0  0  0  0  0  0
   -2.1900   -0.4082   -1.4216 H   0  0  0  0  0  0  0  0  0  0  0  0
   -2.1164    1.3199   -1.1210 H   0  0  0  0  0  0  0  0  0  0  0  0
   -1.6286    0.6337    1.2464 H   0  0  0  0  0  0  0  0  0  0  0  0
   -1.1226   -2.1014    0.8469 H   0  0  0  0  0  0  0  0  0  0  0  0
   -1.1997    0.6473   -2.4245 H   0  0  0  0  0  0  0  0  0  0  0  0
   -0.1396   -0.2285    1.6519 H   0  0  0  0  0  0  0  0  0  0  0  0
    0.0046   -1.8229   -1.0920 H   0  0  0  0  0  0  0  0  0  0  0  0
    0.3166    2.3928   -2.2744 H   0  0  0  0  0  0  0  0  0  0  0  0
    0.7865   -0.6541   -2.0883 H   0  0  0  0  0  0  0  0  0  0  0  0
    1.5169    3.1142   -1.1631 H   0  0  0  0  0  0  0  0  0  0  0  0
    1.7057   -1.3910    0.7173 H   0  0  0  0  0  0  0  0  0  0  0  0
    1.8240    1.5406   -1.9349 H   0  0  0  0  0  0  0  0  0  0  0  0
    2.4454   -1.9234   -0.7756 H   0  0  0  0  0  0  0  0  0  0  0  0
    2.5384   -0.2168   -0.3112 H   0  0  0  0  0  0  0  0  0  0  0  0
   -1.7138   -1.3258    0.8848 O   0  0  0  0  0  0  0  0  0  0  0  0
    0.6751    1.9262    0.8474 O   0  0  0  0  0  0  0  0  0  0  0  0
  1  9  1  0  0  0  0
  1  3  1  0  0  0  0
  2 10  1  0  0  0  0
  2 13  1  0  0  0  0
  3  5  1  1  0  0  0
  3  2  1  0  0  0  0
  4  3  1  0  0  0  0
  4  7  1  0  0  0  0
  5 23  2  0  0  0  0
  6 17  1  0  0  0  0
  6  5  1  0  0  0  0
  7 21  1  0  0  0  0
  7 18  1  0  0  0  0
  8  1  1  0  0  0  0
 11 22  1  0  0  0  0
 12  1  1  0  0  0  0
 14  4  1  0  0  0  0
 15  6  1  0  0  0  0
 16  4  1  0  0  0  0
 19  6  1  0  0  0  0
 20  7  1  0  0  0  0
 22  2  1  0  0  0  0
M  END
$$$$
end
 OpenBabel10282513463D

 15 15  0  0  1  0  0  0  0  0999 V2000
   -1.7353   -2.2582   -0.4014 C   0  0  0  0  0  0  0  0  0  0  0  0
   -1.2599   -1.1899   -0.1218 C   0  0  0  0  0  0  0  0  0  0  0  0
   -0.6641    0.1205    0.2683 C   0  0  2  0  0  0  0  0  0  0  0  0
   -0.0036    0.9399   -0.8728 C   0  0  0  0  0  0  0  0  0  0  0  0
    0.4759    0.0558    1.3039 C   0  0  0  0  0  0  0  0  0  0  0  0
    1.2246    1.3885    1.0359 C   0  0  2  0  0  0  0  0  0  0  0  0
   -2.1400   -3.2247   -0.6464 H   0  0  0  0  0  0  0  0  0  0  0  0
   -1.4657    0.6820    0.6881 H   0  0  0  0  0  0  0  0  0  0  0  0
   -0.7100    1.6708   -1.3010 H   0  0  0  0  0  0  0  0  0  0  0  0
    0.1440   -0.0095    2.3169 H   0  0  0  0  0  0  0  0  0  0  0  0
    0.3606    0.2783   -1.6404 H   0  0  0  0  0  0  0  0  0  0  0  0
    0.5969    2.1757    1.5506 H   0  0  0  0  0  0  0  0  0  0  0  0
    1.1430   -0.7927    1.0620 H   0  0  0  0  0  0  0  0  0  0  0  0
    1.1302    1.6552   -0.3291 O   0  0  0  0  0  0  0  0  0  0  0  0
    2.3899    1.6082    1.4990 O   0  0  0  0  0  1  0  0  0  0  0  0
  1  2  3  0  0  0  0
  2  3  1  0  0  0  0
  3  8  1  1  0  0  0
  3  5  1  0  0  0  0
  4 14  1  0  0  0  0
  4  3  1  0  0  0  0
  5 10  1  0  0  0  0
  6  5  1  0  0  0  0
  6 15  1  0  0  0  0
  6 12  1  1  0  0  0
  7  1  1  0  0  0  0
  9  4  1  0  0  0  0
 11  4  1  0  0  0  0
 13  5  1  0  0  0  0
 14  6  1  0  0  0  0
M  END
$$$$
end
 OpenBabel10282513463D

 22 22  0  0  1  0  0  0  0  0999 V2000
   -2.1354   -1.0972   -1.1082 C   0  0  0  0  0  0  0  0  0  0  0  0
   -2.0204    1.1162   -2.4064 C   0  0  0  0  0  0  0  0  0  0  0  0
   -1.2731   -0.0021   -1.7318 C   0  0  1  0  0  0  0  0  0  0  0  0
   -0.5318   -0.4682    0.3084 C   0  0  0  0  0  0  0  0  0  0  0  0
    0.3326   -0.5846    1.5595 C   0  0  0  0  0  0  0  0  0  0  0  0
    0.9418   -1.9665    1.6711 C   0  0  0  0  0  0  0  0  0  0  0  0
    1.3949    0.5326    1.5620 C   0  0  0  0  0  0  0  0  0  0  0  0
   -3.1091   -0.6994   -0.7583 H   0  0  0  0  0  0  0  0  0  0  0  0
   -2.5979    0.7147   -3.2531 H   0  0  0  0  0  0  0  0  0  0  0  0
   -2.7300    1.6066   -1.7526 H   0  0  0  0  0  0  0  0  0  0  0  0
   -2.3291   -1.9323   -1.7802 H   0  0  0  0  0  0  0  0  0  0  0  0
   -1.3283    1.8804   -2.7697 H   0  0  0  0  0  0  0  0  0  0  0  0
   -0.6181   -0.4833   -2.5047 H   0  0  0  0  0  0  0  0  0  0  0  0
   -0.3113   -0.3902    2.4356 H   0  0  0  0  0  0  0  0  0  0  0  0
    0.1403   -2.7098    1.7161 H   0  0  0  0  0  0  0  0  0  0  0  0
    0.9235    1.5173    1.4527 H   0  0  0  0  0  0  0  0  0  0  0  0
    1.5655   -2.1973    0.8238 H   0  0  0  0  0  0  0  0  0  0  0  0
    1.5558   -2.0645    2.5765 H   0  0  0  0  0  0  0  0  0  0  0  0
    2.0763    0.4197    0.7172 H   0  0  0  0  0  0  0  0  0  0  0  0
    1.9866    0.5329    2.4512 H   0  0  0  0  0  0  0  0  0  0  0  0
   -1.3429   -1.5196   -0.0041 O   0  0  0  0  0  0  0  0  0  0  0  0
   -0.4347    0.4466   -0.6012 N   0  0  0  0  0  0  0  0  0  0  0  0
  1  8  1  0  0  0  0
  1 21  1  0  0  0  0
  2 10  1  0  0  0  0
  2  3  1  0  0  0  0
  3 13  1  6  0  0  0
  3  1  1  0  0  0  0
  3 22  1  0  0  0  0
  4  5  1  0  0  0  0
  5  7  1  0  0  0  0
  5  6  1  0  0  0  0
  5 14  1  0  0  0  0
  6 15  1  0  0  0  0
  6 18  1  0  0  0  0
  7 20  1  0  0  0  0
  9  2  1  0  0  0  0
 11  1  1  0  0  0  0
 12  2  1  0  0  0  0
 16  7  1  0  0  0  0
 17  6  1  0  0  0  0
 19  7  1  0  0  0  0
 21  4  1  0  0  0  0
 22  4  2  0  0  0  0
M  END
$$$$
end
 OpenBabel10282513463D

 14 14  0  0  0  0  0  0  0  0999 V2000
   -0.0552   -1.7473   -0.6831 C   0  0  0  0  0  0  0  0  0  0  0  0
    0.0162   -1.3450    0.6692 C   0  0  0  0  0  3  0  0  0  0  0  0
    0.2590   -0.0081    0.7038 C   0  0  0  0  0  0  0  0  0  0  0  0
    0.4115    0.4601   -0.6581 C   0  0  0  0  0  0  0  0  0  0  0  0
    0.4237    0.8877    1.8531 C   0  0  0  0  0  0  0  0  0  0  0  0
    0.4227    1.5909    2.7996 C   0  0  0  0  0  0  0  0  0  0  0  0
   -0.1312   -1.9851    1.5099 H   0  0  0  0  0  0  0  0  0  0  0  0
    0.2039   -0.5901   -2.4677 H   0  0  0  0  0  0  0  0  0  0  0  0
    0.3981    2.0804    3.7411 H   0  0  0  0  0  0  0  0  0  0  0  0
    0.5929    2.4319   -0.4905 H   0  0  0  0  0  0  0  0  0  0  0  0
    0.6717    1.7978   -2.0656 H   0  0  0  0  0  0  0  0  0  0  0  0
   -0.3039   -2.7958   -1.2306 O   0  0  0  0  0  0  0  0  0  0  0  0
    0.1708   -0.5932   -1.4635 N   0  0  0  0  0  0  0  0  0  0  0  0
    0.8797    1.6553   -1.0831 N   0  0  0  0  0  0  0  0  0  0  0  0
  1  2  1  0  0  0  0
  2  3  1  0  0  0  0
  2  7  1  0  0  0  0
  3  5  1  0  0  0  0
  4  3  2  0  0  0  0
  5  6  3  0  0  0  0
  6  9  1  0  0  0  0
  8 13  1  0  0  0  0
 11 14  1  0  0  0  0
 12  1  2  0  0  0  0
 13  1  1  0  0  0  0
 13  4  1  0  0  0  0
 14  4  1  0  0  0  0
 14 10  1  0  0  0  0
M  END
$$$$
end
 OpenBabel10282513463D

 15 16  0  0  1  0  0  0  0  0999 V2000
   -1.1019   -0.1019   -1.4324 C   0  0  0  0  0  0  0  0  0  0  0  0
   -0.8503   -0.7492    0.9635 C   0  0  0  0  0  0  0  0  0  0  0  0
    0.0493    0.7707   -1.3335 C   0  0  0  0  0  3  0  0  0  0  0  0
    0.4951   -0.0972    1.0621 C   0  0  2  0  0  0  0  0  0  0  0  0
    0.9352    0.7215   -0.1829 C   0  0  1  0  0  0  0  0  0  0  0  0
    1.6410   -0.5815    0.2284 C   0  0  0  0  0  0  0  0  0  0  0  0
   -2.2327   -1.3808   -0.3537 H   0  0  0  0  0  0  0  0  0  0  0  0
    0.2100    1.4207   -2.1596 H   0  0  0  0  0  0  0  0  0  0  0  0
    0.7154    0.2535    2.0478 H   0  0  0  0  0  0  0  0  0  0  0  0
    1.4739   -1.4846   -0.3548 H   0  0  0  0  0  0  0  0  0  0  0  0
    1.4915    1.6287   -0.0013 H   0  0  0  0  0  0  0  0  0  0  0  0
    2.6513   -0.4755    0.6235 H   0  0  0  0  0  0  0  0  0  0  0  0
   -1.8008   -0.1904   -2.4167 O   0  0  0  0  0  0  0  0  0  0  0  0
   -1.4368   -1.2339    1.9274 O   0  0  0  0  0  0  0  0  0  0  0  0
   -1.4129   -0.8215   -0.2924 N   0  0  0  0  0  0  0  0  0  0  0  0
  1  3  1  0  0  0  0
  1 15  1  0  0  0  0
  2  4  1  0  0  0  0
  2 14  2  0  0  0  0
  3  5  1  0  0  0  0
  4  9  1  1  0  0  0
  5 11  1  1  0  0  0
  5  6  1  0  0  0  0
  5  4  1  0  0  0  0
  6 12  1  0  0  0  0
  6  4  1  0  0  0  0
  7 15  1  0  0  0  0
  8  3  1  0  0  0  0
 10  6  1  0  0  0  0
 13  1  2  0  0  0  0
 15  2  1  0  0  0  0
M  END
$$$$
end
 OpenBabel10282513463D

 20 20  0  0  1  0  0  0  0  0999 V2000
   -1.8770   -0.7810    0.6084 C   0  0  0  0  0  0  0  0  0  0  0  0
   -2.0872   -0.0448   -0.7356 C   0  0  0  0  0  0  0  0  0  0  0  0
   -0.8009    0.6571   -0.8595 C   0  0  0  0  0  3  0  0  0  0  0  0
   -0.0943    0.4970    0.2111 C   0  0  0  0  0  0  0  0  0  0  0  0
    1.2493    1.0699    0.5442 C   0  0  0  0  0  0  0  0  0  0  0  0
    2.3897    0.3873   -0.2586 C   0  0  1  0  0  0  0  0  0  0  0  0
    2.5155   -1.1218    0.1375 C   0  0  0  0  0  0  0  0  0  0  0  0
   -2.9650    0.6340   -0.6701 H   0  0  0  0  0  0  0  0  0  0  0  0
   -2.6081   -0.4724    1.3727 H   0  0  0  0  0  0  0  0  0  0  0  0
   -2.3264   -0.7158   -1.5748 H   0  0  0  0  0  0  0  0  0  0  0  0
   -1.9571   -1.8541    0.5184 H   0  0  0  0  0  0  0  0  0  0  0  0
    1.3279    0.1865   -1.8579 H   0  0  0  0  0  0  0  0  0  0  0  0
    1.2473    2.1395    0.2645 H   0  0  0  0  0  0  0  0  0  0  0  0
    1.5439   -1.6099    0.1022 H   0  0  0  0  0  0  0  0  0  0  0  0
    1.4646    0.9785    1.6006 H   0  0  0  0  0  0  0  0  0  0  0  0
    2.9195   -1.2142    1.1453 H   0  0  0  0  0  0  0  0  0  0  0  0
    3.1811   -1.6274   -0.5726 H   0  0  0  0  0  0  0  0  0  0  0  0
    3.3080    0.9157   -0.0364 H   0  0  0  0  0  0  0  0  0  0  0  0
   -0.5969   -0.4179    1.0815 O   0  0  0  0  0  0  0  0  0  0  0  0
    2.1970    0.5167   -1.6756 O   0  0  0  0  0  0  0  0  0  0  0  0
  1 19  1  0  0  0  0
  1  9  1  0  0  0  0
  2  8  1  0  0  0  0
  2  1  1  0  0  0  0
  3  2  1  0  0  0  0
  3  4  2  0  0  0  0
  4  5  1  0  0  0  0
  4 19  1  0  0  0  0
  5 15  1  0  0  0  0
  6 18  1  1  0  0  0
  6  7  1  0  0  0  0
  6  5  1  0  0  0  0
  7 16  1  0  0  0  0
 10  2  1  0  0  0  0
 11  1  1  0  0  0  0
 12 20  1  0  0  0  0
 13  5  1  0  0  0  0
 14  7  1  0  0  0  0
 17  7  1  0  0  0  0
 20  6  1  0  0  0  0
M  END
$$$$
end
 OpenBabel10282513463D

 18 18  0  0  1  0  0  0  0  0999 V2000
   -1.5228   -0.2216   -0.6689 C   0  0  0  0  0  0  0  0  0  0  0  0
   -1.5613    1.1868   -0.0118 C   0  0  0  0  0  0  0  0  0  0  0  0
   -0.5093   -1.6678    1.1819 C   0  0  0  0  0  0  0  0  0  0  0  0
   -0.2342   -0.9168   -0.1082 C   0  0  2  0  0  0  0  0  0  0  0  0
   -0.1389    1.4216    0.5246 C   0  0  0  0  0  0  0  0  0  0  0  0
    0.7469    0.2687    0.1634 C   0  0  2  0  0  0  0  0  0  0  0  0
    1.5563    0.6302   -1.0524 C   0  0  0  0  0  0  0  0  0  0  0  0
   -2.4195   -0.8011   -0.4785 H   0  0  0  0  0  0  0  0  0  0  0  0
   -2.2511    1.1948    0.8395 H   0  0  0  0  0  0  0  0  0  0  0  0
   -1.8365    1.9799   -0.7020 H   0  0  0  0  0  0  0  0  0  0  0  0
   -1.4298   -0.1146   -1.7662 H   0  0  0  0  0  0  0  0  0  0  0  0
   -1.1813   -2.5203    1.0014 H   0  0  0  0  0  0  0  0  0  0  0  0
   -0.9952   -1.0447    1.9555 H   0  0  0  0  0  0  0  0  0  0  0  0
    0.1864   -1.5655   -0.8468 H   0  0  0  0  0  0  0  0  0  0  0  0
    0.4071   -2.0847    1.6423 H   0  0  0  0  0  0  0  0  0  0  0  0
    1.4287    0.1197    0.9899 H   0  0  0  0  0  0  0  0  0  0  0  0
    0.1664    2.4024    1.1218 O   0  0  0  0  0  0  0  0  0  0  0  0
    2.0372    0.8450   -2.0644 N   0  0  0  0  0  0  0  0  0  0  0  0
  1  8  1  0  0  0  0
  1  4  1  0  0  0  0
  1  2  1  0  0  0  0
  2  5  1  0  0  0  0
  2  9  1  0  0  0  0
  3 15  1  0  0  0  0
  3 13  1  0  0  0  0
  4 14  1  6  0  0  0
  4  6  1  0  0  0  0
  4  3  1  0  0  0  0
  5 17  2  0  0  0  0
  6  5  1  0  0  0  0
  6 16  1  1  0  0  0
  7  6  1  0  0  0  0
 10  2  1  0  0  0  0
 11  1  1  0  0  0  0
 12  3  1  0  0  0  0
 18  7  3  0  0  0  0
M  END
$$$$
end
 OpenBabel10282513463D

 22 21  0  0  1  0  0  0  0  0999 V2000
   -0.6231    0.9901    1.3057 C   0  0  2  0  0  0  0  0  0  0  0  0
   -0.5251   -1.7041   -0.8024 C   0  0  0  0  0  0  0  0  0  0  0  0
    0.0698   -0.4098    1.3503 C   0  0  1  0  0  0  0  0  0  0  0  0
    0.3202    1.6219    0.2512 C   0  0  0  0  0  3  0  0  0  0  0  0
    0.5260   -0.8020   -0.1016 C   0  0  0  0  0  3  0  0  0  0  0  0
    0.6536    0.5968   -0.7465 C   0  0  0  0  0 15  0  0  0  0  0  0
    0.7132    1.4525    1.7495 C   0  0  2  0  0  0  0  0  0  0  0  0
    1.8742   -1.5540   -0.1179 C   0  0  0  0  0  0  0  0  0  0  0  0
   -1.6143    1.2825    1.5443 H   0  0  0  0  0  0  0  0  0  0  0  0
   -1.4914   -1.2089   -0.8597 H   0  0  0  0  0  0  0  0  0  0  0  0
   -0.6561   -2.6382   -0.2575 H   0  0  0  0  0  0  0  0  0  0  0  0
   -0.3995   -1.2197    1.9030 H   0  0  0  0  0  0  0  0  0  0  0  0
   -0.2001   -1.9469   -1.8001 H   0  0  0  0  0  0  0  0  0  0  0  0
    0.1640    0.7196   -1.7017 H   0  0  0  0  0  0  0  0  0  0  0  0
    0.1987    2.6293   -0.0435 H   0  0  0  0  0  0  0  0  0  0  0  0
    1.0442    2.2889    2.3488 H   0  0  0  0  0  0  0  0  0  0  0  0
    1.6209    0.7254   -1.2930 H   0  0  0  0  0  0  0  0  0  0  0  0
    1.7993   -2.5358    0.3516 H   0  0  0  0  0  0  0  0  0  0  0  0
    2.2016   -1.7087   -1.1700 H   0  0  0  0  0  0  0  0  0  0  0  0
    2.6626   -0.9817    0.3795 H   0  0  0  0  0  0  0  0  0  0  0  0
    0.9503    0.6601   -1.8973 O   0  0  0  0  0  0  0  0  0  0  0  0
    1.1681    0.1628    2.0621 O   0  0  0  0  0  0  0  0  0  0  0  0
  1  3  1  0  0  0  0
  1  9  1  1  0  0  0
  1  7  1  0  0  0  0
  2 11  1  0  0  0  0
  2  5  1  0  0  0  0
  3 12  1  1  0  0  0
  3 22  1  0  0  0  0
  4  1  1  0  0  0  0
  4  7  1  0  0  0  0
  5  3  1  0  0  0  0
  7 22  1  0  0  0  0
  7 16  1  1  0  0  0
  8  5  1  0  0  0  0
  8 18  1  0  0  0  0
  8 20  1  0  0  0  0
 10  2  1  0  0  0  0
 13  2  1  0  0  0  0
 15  4  1  0  0  0  0
 19  8  1  0  0  0  0
 21 14  1  0  0  0  0
 21 17  1  0  0  0  0
M  END
$$$$
end
 OpenBabel10282513463D

 15 17  0  0  1  0  0  0  0  0999 V2000
   -1.3712   -0.5397   -1.1194 C   0  0  1  0  0  0  0  0  0  0  0  0
   -1.2088   -0.3753    1.2524 C   0  0  0  0  0  0  0  0  0  0  0  0
   -0.7566    0.6882   -0.5683 C   0  0  2  0  0  0  0  0  0  0  0  0
   -0.1768   -1.3439   -0.6567 C   0  0  0  0  0  0  0  0  0  0  0  0
    0.0539   -0.2264    0.4121 C   0  0  2  0  0  0  0  0  0  0  0  0
    1.4120    0.0951    0.8183 C   0  0  0  0  0  3  0  0  0  0  0  0
   -1.9867   -0.5837   -2.0137 H   0  0  0  0  0  0  0  0  0  0  0  0
   -1.4592   -1.3895    1.5786 H   0  0  0  0  0  0  0  0  0  0  0  0
   -1.3120    0.3314    2.0723 H   0  0  0  0  0  0  0  0  0  0  0  0
   -0.6289    1.6733   -0.8797 H   0  0  0  0  0  0  0  0  0  0  0  0
    2.0095    0.2288   -0.0598 H   0  0  0  0  0  0  0  0  0  0  0  0
    2.6880    0.5175    2.1576 H   0  0  0  0  0  0  0  0  0  0  0  0
    0.3886   -2.3451   -0.9951 O   0  0  0  0  0  0  0  0  0  0  0  0
    1.7508    0.3838    1.9665 O   0  0  0  0  0  0  0  0  0  0  0  0
   -1.9783    0.0991    0.0896 N   0  0  1  0  0  0  0  0  0  0  0  0
  1  7  1  6  0  0  0
  1  4  1  0  0  0  0
  1  3  1  0  0  0  0
  1 15  1  0  0  0  0
  2  8  1  0  0  0  0
  2  9  1  0  0  0  0
  3 10  1  6  0  0  0
  3 15  1  0  0  0  0
  3  5  1  0  0  0  0
  4  5  1  0  0  0  0
  5  6  1  1  0  0  0
  5  2  1  0  0  0  0
  6 14  1  0  0  0  0
 11  6  1  0  0  0  0
 13  4  2  0  0  0  0
 14 12  1  0  0  0  0
 15  2  1  1  0  0  0
M  END
$$$$
end
 OpenBabel10282513463D

 13 14  0  0  1  0  0  0  0  0999 V2000
   -0.8945   -0.2909   -0.4405 C   0  0  0  0  0  0  0  0  0  0  0  0
   -0.1953   -1.6328   -0.4609 C   0  0  0  0  0  0  0  0  0  0  0  0
    0.1349    0.6694    0.1771 C   0  0  2  0  0  0  0  0  0  0  0  0
    0.1910    2.0079   -0.3367 C   0  0  0  0  0  2  0  0  0  0  0  0
    0.9955   -1.6120    0.4864 C   0  0  0  0  0  0  0  0  0  0  0  0
    1.1743   -0.1360    0.8298 C   0  0  0  0  0  3  0  0  0  0  0  0
   -1.8012   -0.3233    0.1878 H   0  0  0  0  0  0  0  0  0  0  0  0
   -1.2329    0.0100   -1.4431 H   0  0  0  0  0  0  0  0  0  0  0  0
    0.7234   -2.1469    1.3959 H   0  0  0  0  0  0  0  0  0  0  0  0
    1.8785   -2.0769    0.0486 H   0  0  0  0  0  0  0  0  0  0  0  0
    1.6774    0.1427    1.6978 H   0  0  0  0  0  0  0  0  0  0  0  0
   -0.4938   -2.6010   -1.1014 O   0  0  0  0  0  0  0  0  0  0  0  0
   -0.2548    1.8899    0.7554 O   0  0  0  0  0  0  0  0  0  0  0  0
  1  3  1  0  0  0  0
  1  7  1  0  0  0  0
  2  1  1  0  0  0  0
  2  5  1  0  0  0  0
  3  4  1  6  0  0  0
  3 13  1  0  0  0  0
  3  6  1  0  0  0  0
  4 13  1  0  0  0  0
  5  6  1  0  0  0  0
  5  9  1  0  0  0  0
  6 11  1  0  0  0  0
  8  1  1  0  0  0  0
 10  5  1  0  0  0  0
 12  2  2  0  0  0  0
M  END
$$$$
end
 OpenBabel10282513463D

 17 18  0  0  1  0  0  0  0  0999 V2000
   -1.2017    0.6589   -0.3720 C   0  0  0  0  0  0  0  0  0  0  0  0
   -0.3755   -1.8437   -0.7392 C   0  0  0  0  0  0  0  0  0  0  0  0
   -0.5290   -0.3831   -1.2842 C   0  0  2  0  0  0  0  0  0  0  0  0
    0.8256    0.6694    0.9891 C   0  0  0  0  0  0  0  0  0  0  0  0
    1.0260   -0.3762   -1.2745 C   0  0  1  0  0  0  0  0  0  0  0  0
    1.6766    0.5830   -0.2673 C   0  0  0  0  0  0  0  0  0  0  0  0
   -0.9900   -0.2997   -2.2811 H   0  0  0  0  0  0  0  0  0  0  0  0
   -0.7846   -2.5992   -1.4454 H   0  0  0  0  0  0  0  0  0  0  0  0
   -0.7470   -2.0366    0.2559 H   0  0  0  0  0  0  0  0  0  0  0  0
    0.7512   -0.3231    1.4526 H   0  0  0  0  0  0  0  0  0  0  0  0
    1.2418    1.3748    1.6998 H   0  0  0  0  0  0  0  0  0  0  0  0
    1.5117   -0.3363   -2.2534 H   0  0  0  0  0  0  0  0  0  0  0  0
    1.7229    1.5844   -0.7207 H   0  0  0  0  0  0  0  0  0  0  0  0
    2.6769    0.2505   -0.0201 H   0  0  0  0  0  0  0  0  0  0  0  0
   -2.3130    1.0601   -0.6109 O   0  0  0  0  0  0  0  0  0  0  0  0
   -0.5190    1.1393    0.6929 O   0  0  0  0  0  0  0  0  0  0  0  0
    1.0549   -1.7445   -0.7945 O   0  0  0  0  0  0  0  0  0  0  0  0
  1 16  1  0  0  0  0
  2  9  1  0  0  0  0
  3  7  1  6  0  0  0
  3  5  1  0  0  0  0
  3  2  1  0  0  0  0
  3  1  1  0  0  0  0
  4 10  1  0  0  0  0
  4 11  1  0  0  0  0
  5 12  1  6  0  0  0
  5 17  1  0  0  0  0
  5  6  1  0  0  0  0
  6 14  1  0  0  0  0
  6  4  1  0  0  0  0
  8  2  1  0  0  0  0
 13  6  1  0  0  0  0
 15  1  2  0  0  0  0
 16  4  1  0  0  0  0
 17  2  1  0  0  0  0
M  END
$$$$
end
 OpenBabel10282513463D

 18 19  0  0  1  0  0  0  0  0999 V2000
   -1.3551    0.1617    0.0623 C   0  0  0  0  0  0  0  0  0  0  0  0
    0.0154   -0.5199   -0.1202 C   0  0  1  0  0  0  0  0  0  0  0  0
    0.3555   -0.0668   -1.5693 C   0  0  0  0  0  0  0  0  0  0  0  0
    0.2090    1.3997   -1.1442 C   0  0  2  0  0  0  0  0  0  0  0  0
    0.9651    0.3730    0.6975 C   0  0  0  0  0  0  0  0  0  0  0  0
   -2.1203   -0.4691   -0.4043 H   0  0  0  0  0  0  0  0  0  0  0  0
   -1.6389    0.2816    1.1333 H   0  0  0  0  0  0  0  0  0  0  0  0
   -1.3549    2.2869   -0.1363 H   0  0  0  0  0  0  0  0  0  0  0  0
   -0.3779   -2.3968   -0.5152 H   0  0  0  0  0  0  0  0  0  0  0  0
   -0.3753   -0.3773   -2.3173 H   0  0  0  0  0  0  0  0  0  0  0  0
   -0.1047   -2.1035    1.0825 H   0  0  0  0  0  0  0  0  0  0  0  0
    0.4089    2.1637   -1.8617 H   0  0  0  0  0  0  0  0  0  0  0  0
    1.1419   -2.1191    0.1249 H   0  0  0  0  0  0  0  0  0  0  0  0
    1.3574   -0.3307   -1.8735 H   0  0  0  0  0  0  0  0  0  0  0  0
    1.1194    1.5220   -0.0198 O   0  0  0  0  0  0  0  0  0  0  0  0
    1.5021    0.1372    1.7356 O   0  0  0  0  0  0  0  0  0  0  0  0
   -1.1954    1.4117   -0.6635 N   0  0  0  0  0  0  0  0  0  0  0  0
    0.1806   -1.8924    0.1555 N   0  0  0  0  0  4  0  0  0  0  0  0
  1  7  1  0  0  0  0
  2  1  1  0  0  0  0
  2 18  1  1  0  0  0
  2  5  1  0  0  0  0
  3  4  1  0  0  0  0
  3  2  1  0  0  0  0
  4 12  1  6  0  0  0
  4 17  1  0  0  0  0
  4 15  1  0  0  0  0
  5 16  2  0  0  0  0
  6  1  1  0  0  0  0
  9 18  1  0  0  0  0
 10  3  1  0  0  0  0
 13 18  1  0  0  0  0
 14  3  1  0  0  0  0
 15  5  1  0  0  0  0
 17  8  1  0  0  0  0
 17  1  1  0  0  0  0
 18 11  1  0  0  0  0
M  END
$$$$
end
 OpenBabel10282513463D

 21 21  0  0  1  0  0  0  0  0999 V2000
   -2.0771    1.1672    0.3226 C   0  0  0  0  0  0  0  0  0  0  0  0
   -1.8995    2.4854   -1.9198 C   0  0  0  0  0  0  0  0  0  0  0  0
   -1.4630    1.4456   -0.9246 C   0  0  1  0  0  3  0  0  0  0  0  0
   -0.2514   -0.0374    0.2665 C   0  0  0  0  0  0  0  0  0  0  0  0
   -0.3230    0.5986   -0.9686 C   0  0  0  0  0  0  0  0  0  0  0  0
    0.8480   -0.8957    0.8518 C   0  0  0  0  0  0  0  0  0  0  0  0
    2.5127   -2.6229    0.4012 C   0  0  0  0  0  0  0  0  0  0  0  0
   -3.1009    1.1824    0.5721 H   0  0  0  0  0  0  0  0  0  0  0  0
   -2.9269    2.7963   -1.7667 H   0  0  0  0  0  0  0  0  0  0  0  0
   -1.9182    2.1524    1.0079 H   0  0  0  0  0  0  0  0  0  0  0  0
   -1.8161    2.1645   -2.9643 H   0  0  0  0  0  0  0  0  0  0  0  0
   -1.3215    3.4210   -1.8344 H   0  0  0  0  0  0  0  0  0  0  0  0
    0.4393   -1.4946    1.6612 H   0  0  0  0  0  0  0  0  0  0  0  0
    0.4205    0.5530   -1.7664 H   0  0  0  0  0  0  0  0  0  0  0  0
    1.6224   -0.2421    1.2985 H   0  0  0  0  0  0  0  0  0  0  0  0
    1.7264   -1.2523   -0.9370 H   0  0  0  0  0  0  0  0  0  0  0  0
    2.1192   -3.3470    1.1105 H   0  0  0  0  0  0  0  0  0  0  0  0
    2.9491   -3.1386   -0.4418 H   0  0  0  0  0  0  0  0  0  0  0  0
    3.2784   -2.0398    0.9096 H   0  0  0  0  0  0  0  0  0  0  0  0
   -1.3060    0.2285    1.0359 O   0  0  0  0  0  0  0  0  0  0  0  0
    1.4491   -1.8015   -0.1229 N   0  0  0  0  0  0  0  0  0  0  0  0
  1  8  1  0  0  0  0
  1 10  1  0  0  0  0
  1 20  1  0  0  0  0
  2 12  1  0  0  0  0
  2  9  1  0  0  0  0
  3  2  1  1  0  0  0
  3  1  1  0  0  0  0
  4  6  1  0  0  0  0
  4 20  1  0  0  0  0
  5  3  1  0  0  0  0
  5  4  2  0  0  0  0
  6 15  1  0  0  0  0
  6 13  1  0  0  0  0
  7 19  1  0  0  0  0
  7 17  1  0  0  0  0
 11  2  1  0  0  0  0
 14  5  1  0  0  0  0
 16 21  1  0  0  0  0
 18  7  1  0  0  0  0
 21  7  1  0  0  0  0
 21  6  1  0  0  0  0
M  END
$$$$
end
 OpenBabel10282513463D

 19 19  0  0  1  0  0  0  0  0999 V2000
   -1.5676    2.1657    0.1274 C   0  0  0  0  0  0  0  0  0  0  0  0
   -1.0135   -1.1325    0.1297 C   0  0  0  0  0  0  0  0  0  0  0  0
   -0.9589    1.1343   -0.8473 C   0  0  2  0  0  0  0  0  0  0  0  0
    0.0930   -0.5958    1.0718 C   0  0  2  0  0  0  0  0  0  0  0  0
    1.0416    0.1798    0.1893 C   0  0  2  0  0  3  0  0  0  0  0  0
   -2.6290    2.2792   -0.1075 H   0  0  0  0  0  0  0  0  0  0  0  0
   -1.7923   -1.6199    0.7136 H   0  0  0  0  0  0  0  0  0  0  0  0
   -1.4663    1.8469    1.1544 H   0  0  0  0  0  0  0  0  0  0  0  0
   -1.2070    1.4283   -1.8508 H   0  0  0  0  0  0  0  0  0  0  0  0
   -1.0971    3.1380    0.0129 H   0  0  0  0  0  0  0  0  0  0  0  0
   -0.5509   -1.8651   -0.5388 H   0  0  0  0  0  0  0  0  0  0  0  0
   -0.3666    0.0652    1.8169 H   0  0  0  0  0  0  0  0  0  0  0  0
    1.0379    1.6973   -1.1463 H   0  0  0  0  0  0  0  0  0  0  0  0
    1.7638   -1.4278    1.6713 H   0  0  0  0  0  0  0  0  0  0  0  0
    2.7799    0.5060   -0.3832 H   0  0  0  0  0  0  0  0  0  0  0  0
   -1.5873   -0.1173   -0.6934 O   0  0  0  0  0  0  0  0  0  0  0  0
    0.7023   -1.6160    1.8067 O   0  0  0  0  0  0  0  0  0  0  0  0
    0.4460    1.0329   -0.6799 N   0  0  0  0  0  0  0  0  0  0  0  0
    2.3024   -0.0410    0.3294 N   0  0  0  0  0  2  0  0  0  0  0  0
  1  8  1  0  0  0  0
  2  7  1  0  0  0  0
  2  4  1  0  0  0  0
  3  9  1  6  0  0  0
  3 16  1  0  0  0  0
  3 18  1  0  0  0  0
  3  1  1  0  0  0  0
  4 17  1  0  0  0  0
  4 12  1  1  0  0  0
  5 19  1  6  0  0  0
  5  4  1  0  0  0  0
  6  1  1  0  0  0  0
 10  1  1  0  0  0  0
 11  2  1  0  0  0  0
 13 18  1  0  0  0  0
 14 17  1  0  0  0  0
 15 19  1  0  0  0  0
 16  2  1  0  0  0  0
 18  5  1  0  0  0  0
M  END
$$$$
end
 OpenBabel10282513463D

 15 15  0  0  0  0  0  0  0  0999 V2000
   -1.7049   -1.0030    3.3537 C   0  0  0  0  0  3  0  0  0  0  0  0
   -1.1279   -0.7428    2.3182 C   0  0  0  0  0  0  0  0  0  0  0  0
   -0.5461   -0.4390    1.0947 C   0  0  0  0  0  0  0  0  0  0  0  0
   -0.2589    0.8562    0.6092 C   0  0  0  0  0  0  0  0  0  0  0  0
   -0.0627   -1.3659    0.1279 C   0  0  0  0  0  0  0  0  0  0  0  0
    0.5317   -0.6422   -0.8749 C   0  0  0  0  0  0  0  0  0  0  0  0
    0.9002    1.7252   -1.5142 C   0  0  0  0  0  0  0  0  0  0  0  0
   -0.5121    2.7288    0.6057 H   0  0  0  0  0  0  0  0  0  0  0  0
   -0.1727   -2.4372    0.1034 H   0  0  0  0  0  0  0  0  0  0  0  0
    0.3222    1.7801   -2.4319 H   0  0  0  0  0  0  0  0  0  0  0  0
    0.8854    2.6865   -1.0159 H   0  0  0  0  0  0  0  0  0  0  0  0
    0.9311   -0.9870   -1.8187 H   0  0  0  0  0  0  0  0  0  0  0  0
    1.9403    1.5189   -1.7710 H   0  0  0  0  0  0  0  0  0  0  0  0
   -0.4927    1.9733    1.1876 O   0  0  0  0  0  0  0  0  0  0  0  0
    0.3997    0.6624   -0.6246 N   0  0  0  0  0  0  0  0  0  0  0  0
  2  1  3  0  0  0  0
  3  2  1  0  0  0  0
  4  3  2  0  0  0  0
  4 14  1  0  0  0  0
  5  3  1  0  0  0  0
  6 15  1  0  0  0  0
  6  5  2  0  0  0  0
  7 11  1  0  0  0  0
  7 15  1  0  0  0  0
  8 14  1  0  0  0  0
  9  5  1  0  0  0  0
 10  7  1  0  0  0  0
 12  6  1  0  0  0  0
 13  7  1  0  0  0  0
 15  4  1  0  0  0  0
M  END
$$$$
end
 OpenBabel10282513463D

 13 13  0  0  0  0  0  0  0  0999 V2000
   -0.9746    1.7611   -1.7833 C   0  0  0  0  0  0  0  0  0  0  0  0
   -0.6171    0.7320   -0.8235 C   0  0  0  0  0  0  0  0  0  0  0  0
    0.5299   -0.6050    0.3603 C   0  0  0  0  0  0  0  0  0  0  0  0
    1.7218   -1.3253    0.9029 C   0  0  0  0  0  0  0  0  0  0  0  0
   -1.2636   -1.3810    1.2679 H   0  0  0  0  0  0  0  0  0  0  0  0
   -0.0756    2.1510   -2.3105 H   0  0  0  0  0  0  0  0  0  0  0  0
    1.6062   -2.3874    0.9255 H   0  0  0  0  0  0  0  0  0  0  0  0
    1.9845   -0.9873    1.9082 H   0  0  0  0  0  0  0  0  0  0  0  0
    2.5746   -1.0986    0.2219 H   0  0  0  0  0  0  0  0  0  0  0  0
   -2.0732    2.2110   -2.0065 O   0  0  0  0  0  0  0  0  0  0  0  0
   -1.5179    0.0546   -0.1050 N   0  0  0  0  0  0  0  0  0  0  0  0
   -0.7680   -0.7731    0.6625 N   0  0  0  0  0  0  0  0  0  0  0  0
    0.6397    0.3451   -0.5627 N   0  0  0  0  0  4  0  0  0  0  0  0
  1  2  1  0  0  0  0
  2 13  2  0  0  0  0
  2 11  2  0  0  0  0
  3 12  1  0  0  0  0
  3  4  1  0  0  0  0
  4  7  1  0  0  0  0
  4  8  1  0  0  0  0
  6  1  1  0  0  0  0
  9  4  1  0  0  0  0
 10  1  2  0  0  0  0
 11 12  1  0  0  0  0
 12  5  1  0  0  0  0
 13  3  2  0  0  0  0
M  END
$$$$
end
 OpenBabel10282513463D

 19 20  0  0  1  0  0  0  0  0999 V2000
   -1.8747   -0.5683    0.4778 C   0  0  0  0  0  0  0  0  0  0  0  0
   -0.6657    0.3596    0.7137 C   0  0  0  0  0  0  0  0  0  0  0  0
    0.6057   -0.3737    0.3480 C   0  0  1  0  0  0  0  0  0  0  0  0
    0.9028   -1.3263   -0.6656 C   0  0  1  0  0  0  0  0  0  0  0  0
    1.9851    0.2633    0.3386 C   0  0  0  0  0  0  0  0  0  0  0  0
    2.3474   -0.7495   -0.8149 C   0  0  0  0  0  0  0  0  0  0  0  0
   -2.7919   -0.0224    0.5924 H   0  0  0  0  0  0  0  0  0  0  0  0
   -1.8780   -0.9540   -0.5707 H   0  0  0  0  0  0  0  0  0  0  0  0
   -1.7986   -1.4086    1.1603 H   0  0  0  0  0  0  0  0  0  0  0  0
   -1.2524    1.3346    2.2884 H   0  0  0  0  0  0  0  0  0  0  0  0
   -0.3257    2.2393    0.2793 H   0  0  0  0  0  0  0  0  0  0  0  0
    0.3112   -1.8267   -1.3917 H   0  0  0  0  0  0  0  0  0  0  0  0
    1.9598    1.3081    0.0113 H   0  0  0  0  0  0  0  0  0  0  0  0
    2.4823   -0.2979   -1.7711 H   0  0  0  0  0  0  0  0  0  0  0  0
    2.5818    0.1672    1.2617 H   0  0  0  0  0  0  0  0  0  0  0  0
    3.1445   -1.4571   -0.5718 H   0  0  0  0  0  0  0  0  0  0  0  0
   -0.8377    1.5401   -0.0747 O   0  0  0  0  0  0  0  0  0  0  0  0
   -0.5492    0.7070    2.0935 O   0  0  0  0  0  0  0  0  0  0  0  0
    0.7630   -1.7663    0.6746 O   0  0  0  0  0  0  0  0  0  0  0  0
  1  7  1  0  0  0  0
  1  2  1  0  0  0  0
  1  9  1  0  0  0  0
  2 18  1  0  0  0  0
  3 19  1  0  0  0  0
  3  2  1  1  0  0  0
  4 12  1  6  0  0  0
  4  3  1  0  0  0  0
  4 19  1  0  0  0  0
  5  3  1  0  0  0  0
  5 15  1  0  0  0  0
  6  4  1  0  0  0  0
  6 16  1  0  0  0  0
  6  5  1  0  0  0  0
  8  1  1  0  0  0  0
 13  5  1  0  0  0  0
 14  6  1  0  0  0  0
 17 11  1  0  0  0  0
 17  2  1  0  0  0  0
 18 10  1  0  0  0  0
M  END
$$$$
end
 OpenBabel10282513463D

 16 17  0  0  1  0  0  0  0  0999 V2000
   -0.6394    0.0774    2.7810 C   0  0  0  0  0  0  0  0  0  0  0  0
   -0.5414    0.8585    0.3143 C   0  0  1  0  0  0  0  0  0  0  0  0
   -0.2234   -0.1004   -0.8755 C   0  0  1  0  0  0  0  0  0  0  0  0
    0.0655    0.1358    1.4796 C   0  0  2  0  0  3  0  0  0  0  0  0
    0.3759    1.1569   -1.5686 C   0  0  0  0  0  0  0  0  0  0  0  0
    0.9042   -0.8132    1.0071 C   0  0  0  0  0  3  0  0  0  0  0  0
   -1.5788   -0.5615    2.6219 H   0  0  0  0  0  0  0  0  0  0  0  0
   -1.5558    1.1967    0.4310 H   0  0  0  0  0  0  0  0  0  0  0  0
   -1.0301   -0.6230   -1.3947 H   0  0  0  0  0  0  0  0  0  0  0  0
   -0.9890    1.0069    3.1555 H   0  0  0  0  0  0  0  0  0  0  0  0
   -0.3124    1.6012   -2.2996 H   0  0  0  0  0  0  0  0  0  0  0  0
   -0.0562   -0.4429    3.5371 H   0  0  0  0  0  0  0  0  0  0  0  0
    1.3931    1.0714   -1.9575 H   0  0  0  0  0  0  0  0  0  0  0  0
    1.5355   -1.4724    1.5308 H   0  0  0  0  0  0  0  0  0  0  0  0
    0.2950    1.8511   -0.2864 O   0  0  0  0  0  0  0  0  0  0  0  0
    0.7821   -0.9962   -0.3607 O   0  0  0  0  0  0  0  0  0  0  0  0
  1 10  1  0  0  0  0
  1 12  1  0  0  0  0
  2  8  1  1  0  0  0
  2  4  1  0  0  0  0
  3  9  1  6  0  0  0
  3 16  1  0  0  0  0
  3  2  1  0  0  0  0
  4  1  1  6  0  0  0
  5  3  1  0  0  0  0
  5 15  1  0  0  0  0
  6  4  1  0  0  0  0
  6 14  1  0  0  0  0
  7  1  1  0  0  0  0
 11  5  1  0  0  0  0
 13  5  1  0  0  0  0
 15  2  1  0  0  0  0
 16  6  1  0  0  0  0
M  END
$$$$
end
 OpenBabel10282513463D

 15 15  0  0  1  0  0  0  0  0999 V2000
   -1.6204    0.4975   -2.4305 C   0  0  0  0  0  0  0  0  0  0  0  0
   -0.8505    0.9865   -1.1908 C   0  0  0  0  0  0  0  0  0  0  0  0
   -0.7806   -0.1238   -0.1273 C   0  0  0  0  0  0  0  0  0  0  0  0
    0.3295   -0.1517    0.7970 C   0  0  2  0  0  3  0  0  0  0  0  0
    1.5966    0.2733    1.1000 C   0  0  0  0  0  0  0  0  0  0  0  0
   -2.6644    0.2615   -2.1524 H   0  0  0  0  0  0  0  0  0  0  0  0
   -1.6348    1.3038   -3.1809 H   0  0  0  0  0  0  0  0  0  0  0  0
   -1.1961   -0.3739   -2.8684 H   0  0  0  0  0  0  0  0  0  0  0  0
   -1.3332    1.8680   -0.7581 H   0  0  0  0  0  0  0  0  0  0  0  0
    0.1668    1.2425   -1.4733 H   0  0  0  0  0  0  0  0  0  0  0  0
    2.2201    0.9835    0.6008 H   0  0  0  0  0  0  0  0  0  0  0  0
   -1.7316   -0.8669   -0.0233 O   0  0  0  0  0  0  0  0  0  0  0  0
    0.0185   -1.0931    1.7589 O   0  0  0  0  0  0  0  0  0  0  0  0
    1.0882   -1.1746    2.6518 N   0  0  0  0  0  2  0  0  0  0  0  0
    1.9798   -0.3770    2.1850 N   0  0  0  0  0  0  0  0  0  0  0  0
  1  6  1  0  0  0  0
  1  2  1  0  0  0  0
  2  9  1  0  0  0  0
  2  3  1  0  0  0  0
  3 12  2  0  0  0  0
  4  3  1  6  0  0  0
  4  5  1  0  0  0  0
  4 13  1  0  0  0  0
  5 15  2  0  0  0  0
  7  1  1  0  0  0  0
  8  1  1  0  0  0  0
 10  2  1  0  0  0  0
 11  5  1  0  0  0  0
 13 14  1  0  0  0  0
 15 14  1  0  0  0  0
M  END
$$$$
end
 OpenBabel10282513463D

 17 18  0  0  1  0  0  0  0  0999 V2000
   -1.9789    0.5167    0.9003 C   0  0  0  0  0  0  0  0  0  0  0  0
   -1.7911   -0.1993   -1.4821 C   0  0  0  0  0  0  0  0  0  0  0  0
   -1.1889    0.5664   -0.3897 C   0  0  1  0  0  0  0  0  0  0  0  0
   -0.3631    1.7931   -0.7350 C   0  0  0  0  0  0  0  0  0  0  0  0
    0.3407    0.5130   -0.2816 C   0  0  1  0  0  0  0  0  0  0  0  0
    1.1198    0.2662    0.9780 C   0  0  0  0  0  0  0  0  0  0  0  0
    1.9909   -0.6855    0.1756 C   0  0  0  0  0  0  0  0  0  0  0  0
   -3.0108    0.8917    0.7100 H   0  0  0  0  0  0  0  0  0  0  0  0
   -2.0718   -0.5171    1.2557 H   0  0  0  0  0  0  0  0  0  0  0  0
   -1.5026    1.1250    1.6742 H   0  0  0  0  0  0  0  0  0  0  0  0
   -0.4389    2.6465   -0.0483 H   0  0  0  0  0  0  0  0  0  0  0  0
   -0.2242    2.0498   -1.7748 H   0  0  0  0  0  0  0  0  0  0  0  0
    1.9193   -1.7429    0.3924 H   0  0  0  0  0  0  0  0  0  0  0  0
    3.0339   -0.3729    0.1403 H   0  0  0  0  0  0  0  0  0  0  0  0
    1.0307    0.6608    2.0808 O   0  0  0  0  0  0  0  0  0  0  0  0
    1.2095   -0.2348   -1.0399 O   0  0  0  0  0  0  0  0  0  0  0  0
   -2.2489   -0.8293   -2.3156 N   0  0  0  0  0  0  0  0  0  0  0  0
  1  9  1  0  0  0  0
  1 10  1  0  0  0  0
  3  2  1  6  0  0  0
  3  5  1  0  0  0  0
  3  1  1  0  0  0  0
  4  3  1  0  0  0  0
  4  5  1  0  0  0  0
  4 11  1  0  0  0  0
  5 16  1  6  0  0  0
  5  6  1  0  0  0  0
  6 15  2  0  0  0  0
  7 13  1  0  0  0  0
  7  6  1  0  0  0  0
  8  1  1  0  0  0  0
 12  4  1  0  0  0  0
 14  7  1  0  0  0  0
 16  7  1  0  0  0  0
 17  2  3  0  0  0  0
M  END
$$$$
end
 OpenBabel10282513463D

 16 16  0  0  0  0  0  0  0  0999 V2000
   -2.6982   -0.8666   -0.2497 C   0  0  0  0  0  0  0  0  0  0  0  0
   -1.5951    1.0112   -0.5992 C   0  0  0  0  0  0  0  0  0  0  0  0
   -0.5218   -0.9951   -0.0563 C   0  0  0  0  0  0  0  0  0  0  0  0
    0.8314    1.0777   -0.3830 C   0  0  0  0  0  0  0  0  0  0  0  0
    2.0811    0.1662   -0.3243 C   0  0  0  0  0  0  0  0  0  0  0  0
   -3.6622   -1.4799   -0.1685 H   0  0  0  0  0  0  0  0  0  0  0  0
    0.3685   -1.5482    0.1217 H   0  0  0  0  0  0  0  0  0  0  0  0
    0.8217    1.6411   -1.3163 H   0  0  0  0  0  0  0  0  0  0  0  0
    0.8349    1.7740    0.4400 H   0  0  0  0  0  0  0  0  0  0  0  0
    2.1042   -0.3937    0.6054 H   0  0  0  0  0  0  0  0  0  0  0  0
    2.1589   -0.5138   -1.1621 H   0  0  0  0  0  0  0  0  0  0  0  0
    2.9748    0.8346   -0.2956 H   0  0  0  0  0  0  0  0  0  0  0  0
   -1.5234    2.2468   -1.0073 O   0  0  0  0  0  0  0  0  0  0  0  0
   -2.7295    0.3437   -0.5790 N   0  0  0  0  0  4  0  0  0  0  0  0
   -1.6989   -1.7017    0.1446 N   0  0  0  0  0  4  0  0  0  0  0  0
   -0.4020    0.3542   -0.3391 N   0  0  0  0  0  0  0  0  0  0  0  0
  1  6  1  0  0  0  0
  1 15  2  0  0  0  0
  2 14  2  0  0  0  0
  2 16  1  0  0  0  0
  3  7  1  0  0  0  0
  3 15  2  0  0  0  0
  4 16  1  0  0  0  0
  4  5  1  0  0  0  0
  4  9  1  0  0  0  0
  5 12  1  0  0  0  0
  5 10  1  0  0  0  0
  8  4  1  0  0  0  0
 11  5  1  0  0  0  0
 13  2  2  0  0  0  0
 14  1  2  0  0  0  0
 16  3  1  0  0  0  0
M  END
$$$$
end
 OpenBabel10282513463D

 13 13  0  0  0  0  0  0  0  0999 V2000
   -0.6760   -0.4442   -0.0968 C   0  0  0  0  0  0  0  0  0  0  0  0
    0.3580   -0.6394    0.9829 C   0  0  0  0  0  0  0  0  0  0  0  0
    1.0767    0.3671   -1.5128 C   0  0  0  0  0  0  0  0  0  0  0  0
    1.9668   -0.5901   -0.7342 C   0  0  0  0  0  0  0  0  0  0  0  0
   -2.0810   -1.0426    1.0221 H   0  0  0  0  0  0  0  0  0  0  0  0
    1.2377    0.2234   -2.5672 H   0  0  0  0  0  0  0  0  0  0  0  0
    1.2521    1.4119   -1.2455 H   0  0  0  0  0  0  0  0  0  0  0  0
    1.7942   -1.6073   -1.0827 H   0  0  0  0  0  0  0  0  0  0  0  0
    3.0284   -0.3477   -0.8183 H   0  0  0  0  0  0  0  0  0  0  0  0
   -0.3033    0.0308   -1.3141 O   0  0  0  0  0  0  0  0  0  0  0  0
    0.0600   -0.8752    2.1290 O   0  0  0  0  0  0  0  0  0  0  0  0
    1.6832   -0.5665    0.6359 O   0  0  0  0  0  0  0  0  0  0  0  0
   -1.8812   -0.7708    0.0403 N   0  0  0  0  0  0  0  0  0  0  0  0
  1 13  2  0  0  0  0
  1  2  1  0  0  0  0
  2 11  2  0  0  0  0
  3 10  1  0  0  0  0
  3  7  1  0  0  0  0
  3  4  1  0  0  0  0
  4 12  1  0  0  0  0
  6  3  1  0  0  0  0
  8  4  1  0  0  0  0
  9  4  1  0  0  0  0
 10  1  1  0  0  0  0
 12  2  1  0  0  0  0
 13  5  1  0  0  0  0
M  END
$$$$
end
 OpenBabel10282513463D

 21 21  0  0  1  0  0  0  0  0999 V2000
   -0.8204   -2.5206    0.1234 C   0  0  0  0  0  0  0  0  0  0  0  0
   -0.5532   -1.0335   -0.1151 C   0  0  2  0  0  0  0  0  0  0  0  0
   -0.0795   -0.7444   -1.5341 C   0  0  0  0  0  0  0  0  0  0  0  0
    0.1723    0.7678   -1.6690 C   0  0  0  0  0  0  0  0  0  0  0  0
    0.7290    0.9314    0.6294 C   0  0  1  0  0  0  0  0  0  0  0  0
    1.8803    1.4879    1.4937 C   0  0  0  0  0  0  0  0  0  0  0  0
   -1.5854   -2.8662   -0.6035 H   0  0  0  0  0  0  0  0  0  0  0  0
   -1.4554   -0.4903    0.0673 H   0  0  0  0  0  0  0  0  0  0  0  0
   -1.2289   -2.6528    1.1146 H   0  0  0  0  0  0  0  0  0  0  0  0
   -0.8084   -1.0758   -2.2454 H   0  0  0  0  0  0  0  0  0  0  0  0
   -0.7721    1.3149   -1.5848 H   0  0  0  0  0  0  0  0  0  0  0  0
   -0.1918    1.4384    0.8710 H   0  0  0  0  0  0  0  0  0  0  0  0
    0.0657   -3.1120   -0.0104 H   0  0  0  0  0  0  0  0  0  0  0  0
    0.6552    1.0045   -2.6329 H   0  0  0  0  0  0  0  0  0  0  0  0
    0.8766   -1.3026   -1.7216 H   0  0  0  0  0  0  0  0  0  0  0  0
    1.3603   -1.0260    0.7423 H   0  0  0  0  0  0  0  0  0  0  0  0
    1.6612    1.2771    2.5560 H   0  0  0  0  0  0  0  0  0  0  0  0
    1.9636    2.5824    1.3529 H   0  0  0  0  0  0  0  0  0  0  0  0
    2.8163    0.9894    1.1969 H   0  0  0  0  0  0  0  0  0  0  0  0
    1.1255    1.2133   -0.7170 O   0  0  0  0  0  0  0  0  0  0  0  0
    0.4578   -0.5185    0.8634 N   0  0  0  0  0  0  0  0  0  0  0  0
  1  9  1  0  0  0  0
  2  8  1  1  0  0  0
  2  1  1  0  0  0  0
  2 21  1  0  0  0  0
  3  2  1  0  0  0  0
  4 11  1  0  0  0  0
  4  3  1  0  0  0  0
  4 20  1  0  0  0  0
  5 21  1  0  0  0  0
  5 12  1  1  0  0  0
  5  6  1  0  0  0  0
  6 17  1  0  0  0  0
  7  1  1  0  0  0  0
 10  3  1  0  0  0  0
 13  1  1  0  0  0  0
 14  4  1  0  0  0  0
 15  3  1  0  0  0  0
 16 21  1  0  0  0  0
 18  6  1  0  0  0  0
 19  6  1  0  0  0  0
 20  5  1  0  0  0  0
M  END
$$$$
end
 OpenBabel10282513463D

 18 18  0  0  1  0  0  0  0  0999 V2000
   -1.3973   -0.2010   -0.4529 C   0  0  0  0  0  0  0  0  0  0  0  0
   -0.6589   -2.3676    0.0595 C   0  0  0  0  0  0  0  0  0  0  0  0
    0.1391   -0.0976   -0.3506 C   0  0  2  0  0  0  0  0  0  0  0  0
    0.0247    2.1605    0.8508 C   0  0  0  0  0  0  0  0  0  0  0  0
    0.5887   -1.5764   -0.2778 C   0  0  0  0  0  0  0  0  0  0  0  0
    0.4636    0.7015    0.9148 C   0  0  0  0  0  0  0  0  0  0  0  0
   -2.6831   -1.8437   -0.1006 H   0  0  0  0  0  0  0  0  0  0  0  0
   -1.0646    2.2304    0.8126 H   0  0  0  0  0  0  0  0  0  0  0  0
    0.0324    0.1943    1.8022 H   0  0  0  0  0  0  0  0  0  0  0  0
    0.3765    2.7307    1.6939 H   0  0  0  0  0  0  0  0  0  0  0  0
    0.5273    0.4144   -1.2180 H   0  0  0  0  0  0  0  0  0  0  0  0
    0.4205    2.6272   -0.0679 H   0  0  0  0  0  0  0  0  0  0  0  0
    0.9528   -1.8933   -1.2636 H   0  0  0  0  0  0  0  0  0  0  0  0
    1.3885   -1.7322    0.4281 H   0  0  0  0  0  0  0  0  0  0  0  0
    1.5630    0.6637    1.0810 H   0  0  0  0  0  0  0  0  0  0  0  0
   -2.2354    0.6613   -0.6688 O   0  0  0  0  0  0  0  0  0  0  0  0
   -0.6833   -3.5646    0.5039 O   0  0  0  0  0  0  0  0  0  0  0  0
   -1.7197   -1.5518   -0.1709 N   0  0  0  0  0  0  0  0  0  0  0  0
  1  3  1  0  0  0  0
  1 18  1  0  0  0  0
  2 17  2  0  0  0  0
  3 11  1  6  0  0  0
  3  5  1  0  0  0  0
  3  6  1  0  0  0  0
  4  6  1  0  0  0  0
  4 10  1  0  0  0  0
  5  2  1  0  0  0  0
  5 14  1  0  0  0  0
  6 15  1  0  0  0  0
  6  9  1  0  0  0  0
  8  4  1  0  0  0  0
 12  4  1  0  0  0  0
 13  5  1  0  0  0  0
 16  1  2  0  0  0  0
 18  7  1  0  0  0  0
 18  2  1  0  0  0  0
M  END
$$$$
end
 OpenBabel10282513463D

 20 20  0  0  1  0  0  0  0  0999 V2000
   -0.9961   -0.1366    1.2754 C   0  0  0  0  0  0  0  0  0  0  0  0
   -0.4584    0.1587   -0.1247 C   0  0  1  0  0  0  0  0  0  0  0  0
    0.2602    1.5173   -0.1483 C   0  0  0  0  0  0  0  0  0  0  0  0
    0.4274   -0.9539   -0.6779 C   0  0  0  0  0  0  0  0  0  0  0  0
    1.0007   -0.5984   -2.0995 C   0  0  0  0  0  0  0  0  0  0  0  0
    1.1894    1.7605   -1.2933 C   0  0  0  0  0  0  0  0  0  0  0  0
    1.4716    0.7979   -2.1900 C   0  0  0  0  0  0  0  0  0  0  0  0
   -1.8344    0.5451    1.4902 H   0  0  0  0  0  0  0  0  0  0  0  0
   -1.4285   -1.1136    1.2595 H   0  0  0  0  0  0  0  0  0  0  0  0
   -1.3094    0.2562   -0.8226 H   0  0  0  0  0  0  0  0  0  0  0  0
   -0.1341   -1.8804   -0.7868 H   0  0  0  0  0  0  0  0  0  0  0  0
   -0.3223   -0.4089    3.1846 H   0  0  0  0  0  0  0  0  0  0  0  0
    0.1558   -0.7040   -2.8245 H   0  0  0  0  0  0  0  0  0  0  0  0
    0.3472    0.8668    2.3554 H   0  0  0  0  0  0  0  0  0  0  0  0
    1.2382   -1.1426    0.0005 H   0  0  0  0  0  0  0  0  0  0  0  0
    1.5677    2.7366   -1.3913 H   0  0  0  0  0  0  0  0  0  0  0  0
    1.7510   -1.3334   -2.4004 H   0  0  0  0  0  0  0  0  0  0  0  0
    2.0246    1.0322   -3.1019 H   0  0  0  0  0  0  0  0  0  0  0  0
    0.0653    2.3759    0.6747 O   0  0  0  0  0  0  0  0  0  0  0  0
    0.0456   -0.1042    2.3200 N   0  0  0  0  0  0  0  0  0  0  0  0
  1  8  1  0  0  0  0
  1 20  1  0  0  0  0
  2 10  1  6  0  0  0
  2  1  1  0  0  0  0
  3  2  1  0  0  0  0
  3 19  2  0  0  0  0
  4  2  1  0  0  0  0
  4 15  1  0  0  0  0
  5  4  1  0  0  0  0
  6  3  1  0  0  0  0
  7  5  1  0  0  0  0
  7  6  2  0  0  0  0
  9  1  1  0  0  0  0
 11  4  1  0  0  0  0
 13  5  1  0  0  0  0
 16  6  1  0  0  0  0
 17  5  1  0  0  0  0
 18  7  1  0  0  0  0
 20 14  1  0  0  0  0
 20 12  1  0  0  0  0
M  END
$$$$
end
 OpenBabel10282513463D

 17 17  0  0  0  0  0  0  0  0999 V2000
   -1.9273   -1.1397    0.3213 C   0  0  0  0  0  3  0  0  0  0  0  0
   -1.1287    0.8272   -0.2509 C   0  0  0  0  0  0  0  0  0  0  0  0
   -1.1117    2.2720   -0.5987 C   0  0  0  0  0  0  0  0  0  0  0  0
   -0.1261   -0.0840   -0.3068 C   0  0  0  0  0  0  0  0  0  0  0  0
    2.0567   -0.8794   -0.2846 C   0  0  0  0  0  0  0  0  0  0  0  0
   -3.1324    0.5398    0.4147 H   0  0  0  0  0  0  0  0  0  0  0  0
   -2.5757   -1.9505    0.5477 H   0  0  0  0  0  0  0  0  0  0  0  0
   -1.9725    2.5787   -1.1866 H   0  0  0  0  0  0  0  0  0  0  0  0
   -1.0941    2.8797    0.2978 H   0  0  0  0  0  0  0  0  0  0  0  0
   -0.1972    2.5249   -1.1482 H   0  0  0  0  0  0  0  0  0  0  0  0
    1.7388   -1.7823   -0.8259 H   0  0  0  0  0  0  0  0  0  0  0  0
    2.0067   -1.1316    0.7777 H   0  0  0  0  0  0  0  0  0  0  0  0
    3.5960    0.2729   -0.2299 H   0  0  0  0  0  0  0  0  0  0  0  0
   -0.6326   -1.3331    0.0176 O   0  0  0  0  0  0  0  0  0  0  0  0
    1.1601    0.1559   -0.5649 O   0  0  0  0  0  0  0  0  0  0  0  0
    3.3536   -0.5348   -0.6394 O   0  0  0  0  0  0  0  0  0  0  0  0
   -2.2399    0.1383    0.2082 N   0  0  0  0  0  0  0  0  0  0  0  0
  1  7  1  0  0  0  0
  2 17  1  0  0  0  0
  3  2  1  0  0  0  0
  3  9  1  0  0  0  0
  4  2  2  0  0  0  0
  4 14  1  0  0  0  0
  5 12  1  0  0  0  0
  8  3  1  0  0  0  0
 10  3  1  0  0  0  0
 11  5  1  0  0  0  0
 14  1  1  0  0  0  0
 15  4  1  0  0  0  0
 15  5  1  0  0  0  0
 16  5  1  0  0  0  0
 16 13  1  0  0  0  0
 17  1  1  0  0  0  0
 17  6  1  0  0  0  0
M  END
$$$$
end
 OpenBabel10282513463D

 21 22  0  0  1  0  0  0  0  0999 V2000
   -3.2123    0.6066    0.8783 C   0  0  0  0  0  2  0  0  0  0  0  0
   -1.0384    0.4709   -0.6923 C   0  0  2  0  0  0  0  0  0  0  0  0
   -0.0500   -1.5515   -1.4382 C   0  0  0  0  0  0  0  0  0  0  0  0
    0.2824    0.2748    0.0404 C   0  0  0  0  0  0  0  0  0  0  0  0
    0.5075   -1.2525   -0.0541 C   0  0  0  0  0  0  0  0  0  0  0  0
    0.8467    1.1239    1.1113 C   0  0  0  0  0  0  0  0  0  0  0  0
    1.5150    1.1718   -0.1870 C   0  0  0  0  0  0  0  0  0  0  0  0
   -2.1352    0.1562    1.1958 H   0  0  0  0  0  0  0  0  0  0  0  0
   -1.6520   -0.5633   -2.4135 H   0  0  0  0  0  0  0  0  0  0  0  0
   -1.0849    1.3964   -1.2744 H   0  0  0  0  0  0  0  0  0  0  0  0
   -0.3367   -2.5909   -1.5789 H   0  0  0  0  0  0  0  0  0  0  0  0
   -0.0993   -1.7424    0.7202 H   0  0  0  0  0  0  0  0  0  0  0  0
    0.2525    1.9973    1.4029 H   0  0  0  0  0  0  0  0  0  0  0  0
    0.7085   -1.2561   -2.1969 H   0  0  0  0  0  0  0  0  0  0  0  0
    1.3762    0.6315    1.9308 H   0  0  0  0  0  0  0  0  0  0  0  0
    1.3787    2.0602   -0.8095 H   0  0  0  0  0  0  0  0  0  0  0  0
    1.5331   -1.5662    0.1576 H   0  0  0  0  0  0  0  0  0  0  0  0
    2.5115    0.6855   -0.3414 H   0  0  0  0  0  0  0  0  0  0  0  0
   -3.9244    0.4471   -0.0837 N   0  0  0  0  0  1  0  0  0  0  0  0
   -2.3819    0.6418    0.1470 N   0  0  0  0  0  0  0  0  0  0  0  0
   -1.2182   -0.6998   -1.5451 N   0  0  0  0  0  0  0  0  0  0  0  0
  2 10  1  6  0  0  0
  2  4  1  0  0  0  0
  2 20  1  0  0  0  0
  3  5  1  0  0  0  0
  4  6  1  0  0  0  0
  5  4  1  0  0  0  0
  5 17  1  0  0  0  0
  5 12  1  0  0  0  0
  6 13  1  0  0  0  0
  6 15  1  0  0  0  0
  7  4  1  0  0  0  0
  7  6  1  0  0  0  0
  9 21  1  0  0  0  0
 11  3  1  0  0  0  0
 14  3  1  0  0  0  0
 16  7  1  0  0  0  0
 18  7  1  0  0  0  0
 19  1  1  0  0  0  0
 20  1  1  0  0  0  0
 20  8  1  0  0  0  0
 21  3  1  0  0  0  0
 21  2  1  0  0  0  0
M  END
$$$$
end
 OpenBabel10282513463D

 20 20  0  0  1  0  0  0  0  0999 V2000
   -1.0556   -0.1461   -0.8268 C   0  0  0  0  0  3  0  0  0  0  0  0
   -0.6295    1.1609   -0.2018 C   0  0  1  0  0  0  0  0  0  0  0  0
    0.2938   -2.1502   -1.1940 C   0  0  0  0  0  0  0  0  0  0  0  0
    0.4386    0.8395    0.8115 C   0  0  1  0  0  0  0  0  0  0  0  0
    0.4582    1.4470    2.1883 C   0  0  0  0  0  0  0  0  0  0  0  0
    0.8124   -0.6314    0.6252 C   0  0  0  0  0  0  0  0  0  0  0  0
    0.7715    1.6491   -0.4631 C   0  0  0  0  0  0  0  0  0  0  0  0
   -1.9938   -0.5209   -0.4065 H   0  0  0  0  0  0  0  0  0  0  0  0
   -1.3798    1.9076    0.0058 H   0  0  0  0  0  0  0  0  0  0  0  0
   -1.1135   -0.0974   -1.9278 H   0  0  0  0  0  0  0  0  0  0  0  0
   -0.3585   -2.2675   -2.0543 H   0  0  0  0  0  0  0  0  0  0  0  0
   -0.2704    0.9311    2.8434 H   0  0  0  0  0  0  0  0  0  0  0  0
    0.1590    2.5134    2.1450 H   0  0  0  0  0  0  0  0  0  0  0  0
    0.6231   -1.2431    1.4996 H   0  0  0  0  0  0  0  0  0  0  0  0
    0.9712    2.6938   -0.3665 H   0  0  0  0  0  0  0  0  0  0  0  0
    1.3359    1.1492   -1.2345 H   0  0  0  0  0  0  0  0  0  0  0  0
    1.4257    1.3930    2.6406 H   0  0  0  0  0  0  0  0  0  0  0  0
    1.8815   -0.7863    0.4053 H   0  0  0  0  0  0  0  0  0  0  0  0
    0.0550   -1.0222   -0.5261 O   0  0  0  0  0  0  0  0  0  0  0  0
    1.1517   -2.9113   -0.8711 O   0  0  0  0  0  0  0  0  0  0  0  0
  1  8  1  0  0  0  0
  1  2  1  0  0  0  0
  2  9  1  1  0  0  0
  2  4  1  0  0  0  0
  3 20  2  0  0  0  0
  3 19  1  0  0  0  0
  4  6  1  6  0  0  0
  4  5  1  0  0  0  0
  5 17  1  0  0  0  0
  5 12  1  0  0  0  0
  6 14  1  0  0  0  0
  7 15  1  0  0  0  0
  7  2  1  0  0  0  0
  7  4  1  0  0  0  0
 10  1  1  0  0  0  0
 11  3  1  0  0  0  0
 13  5  1  0  0  0  0
 16  7  1  0  0  0  0
 18  6  1  0  0  0  0
 19  6  1  0  0  0  0
M  END
$$$$
end
 OpenBabel10282513463D

 17 18  0  0  1  0  0  0  0  0999 V2000
   -2.2947   -1.1915    0.6069 C   0  0  0  0  0  0  0  0  0  0  0  0
   -0.7568   -0.3832   -1.0008 C   0  0  2  0  0  0  0  0  0  0  0  0
    0.5477    0.2142   -1.3668 C   0  0  1  0  0  0  0  0  0  0  0  0
    1.2180   -0.6976    0.3091 C   0  0  0  0  0  0  0  0  0  0  0  0
    1.3147    0.7918   -0.1633 C   0  0  1  0  0  0  0  0  0  0  0  0
    2.5638    1.5011   -0.3181 C   0  0  0  0  0  0  0  0  0  0  0  0
    3.6742    1.9765   -0.3874 C   0  0  0  0  0  3  0  0  0  0  0  0
   -3.0210   -1.4846   -0.1574 H   0  0  0  0  0  0  0  0  0  0  0  0
   -2.8370   -0.8979    1.4931 H   0  0  0  0  0  0  0  0  0  0  0  0
   -1.6423   -2.0703    0.7880 H   0  0  0  0  0  0  0  0  0  0  0  0
   -1.3835   -0.6890   -1.8263 H   0  0  0  0  0  0  0  0  0  0  0  0
    0.6261    1.4219    0.4021 H   0  0  0  0  0  0  0  0  0  0  0  0
    0.7241   -0.8563    1.2583 H   0  0  0  0  0  0  0  0  0  0  0  0
    0.8260    0.4571   -2.4065 H   0  0  0  0  0  0  0  0  0  0  0  0
    2.1950   -1.1813    0.2587 H   0  0  0  0  0  0  0  0  0  0  0  0
   -1.4857   -0.0740    0.1765 O   0  0  0  0  0  0  0  0  0  0  0  0
    0.4586   -1.1933   -0.8905 N   0  0  1  0  0  0  0  0  0  0  0  0
  1 10  1  0  0  0  0
  1  9  1  0  0  0  0
  2 11  1  6  0  0  0
  2 17  1  0  0  0  0
  2 16  1  0  0  0  0
  3 14  1  6  0  0  0
  3  2  1  0  0  0  0
  3 17  1  0  0  0  0
  3  5  1  0  0  0  0
  4 13  1  0  0  0  0
  5  4  1  0  0  0  0
  5 12  1  1  0  0  0
  6  5  1  0  0  0  0
  7  6  3  0  0  0  0
  8  1  1  0  0  0  0
 15  4  1  0  0  0  0
 16  1  1  0  0  0  0
 17  4  1  1  0  0  0
M  END
$$$$
end
 OpenBabel10282513463D

 16 15  0  0  0  0  0  0  0  0999 V2000
   -1.3505    2.8961    0.1721 C   0  0  0  0  0  0  0  0  0  0  0  0
   -1.1135    1.4158    0.2262 C   0  0  0  0  0  0  0  0  0  0  0  0
    0.2220    1.1298   -0.4569 C   0  0  0  0  0  0  0  0  0  0  0  0
    1.6359   -0.7010   -1.1664 C   0  0  0  0  0  0  0  0  0  0  0  0
    1.9408   -2.1687   -0.9298 C   0  0  0  0  0  0  0  0  0  0  0  0
   -1.9261    0.8574   -0.2321 H   0  0  0  0  0  0  0  0  0  0  0  0
   -1.0956    1.1188    1.2833 H   0  0  0  0  0  0  0  0  0  0  0  0
    0.3210   -0.7903    0.4080 H   0  0  0  0  0  0  0  0  0  0  0  0
    0.2403    1.4600   -1.4894 H   0  0  0  0  0  0  0  0  0  0  0  0
    1.1362   -2.7699   -1.3748 H   0  0  0  0  0  0  0  0  0  0  0  0
    1.0067    1.7037    0.0216 H   0  0  0  0  0  0  0  0  0  0  0  0
    2.0115   -2.4279    0.1265 H   0  0  0  0  0  0  0  0  0  0  0  0
    2.8869   -2.4092   -1.4354 H   0  0  0  0  0  0  0  0  0  0  0  0
    2.2306   -0.0044   -1.9286 O   0  0  0  0  0  0  0  0  0  0  0  0
   -1.4544    3.9927    0.1300 N   0  0  0  0  0  0  0  0  0  0  0  0
    0.5460   -0.2714   -0.4132 N   0  0  0  0  0  0  0  0  0  0  0  0
  1  2  1  0  0  0  0
  2  7  1  0  0  0  0
  3 16  1  0  0  0  0
  3 11  1  0  0  0  0
  3  2  1  0  0  0  0
  4  5  1  0  0  0  0
  4 16  1  0  0  0  0
  5 12  1  0  0  0  0
  6  2  1  0  0  0  0
  9  3  1  0  0  0  0
 10  5  1  0  0  0  0
 13  5  1  0  0  0  0
 14  4  2  0  0  0  0
 15  1  3  0  0  0  0
 16  8  1  0  0  0  0
M  END
$$$$
end
 OpenBabel10282513463D

 22 23  0  0  1  0  0  0  0  0999 V2000
   -1.5994   -0.7491   -1.2624 C   0  0  0  0  0  0  0  0  0  0  0  0
   -1.7951   -0.6107    0.2742 C   0  0  0  0  0  0  0  0  0  0  0  0
   -0.3609   -0.6610    0.8222 C   0  0  2  0  0  0  0  0  0  0  0  0
   -0.2185   -0.0807   -1.5339 C   0  0  2  0  0  0  0  0  0  0  0  0
   -0.0720   -0.3229    2.2504 C   0  0  0  0  0  0  0  0  0  0  0  0
    0.4620   -0.5321   -2.8059 C   0  0  0  0  0  3  0  0  0  0  0  0
    0.5982   -0.3985   -0.2877 C   0  0  1  0  0  0  0  0  0  0  0  0
    1.9893    0.1245   -0.0401 C   0  0  0  0  0  0  0  0  0  0  0  0
   -2.4039   -1.4507    0.6747 H   0  0  0  0  0  0  0  0  0  0  0  0
   -2.4080   -0.3087   -1.8219 H   0  0  0  0  0  0  0  0  0  0  0  0
   -2.3040    0.3199    0.5637 H   0  0  0  0  0  0  0  0  0  0  0  0
   -1.5437   -1.8092   -1.5654 H   0  0  0  0  0  0  0  0  0  0  0  0
   -0.8224   -0.7085    2.8916 H   0  0  0  0  0  0  0  0  0  0  0  0
   -0.3733    0.9983   -1.5526 H   0  0  0  0  0  0  0  0  0  0  0  0
   -0.0339    0.7680    2.3937 H   0  0  0  0  0  0  0  0  0  0  0  0
    0.7493   -1.5856   -2.7275 H   0  0  0  0  0  0  0  0  0  0  0  0
    0.9107   -0.6989    2.5608 H   0  0  0  0  0  0  0  0  0  0  0  0
    1.3971    0.0273   -3.0217 H   0  0  0  0  0  0  0  0  0  0  0  0
    2.0129    1.1911    0.0749 H   0  0  0  0  0  0  0  0  0  0  0  0
    2.6197   -0.1281   -0.8983 H   0  0  0  0  0  0  0  0  0  0  0  0
    2.4220   -0.3177    0.8702 H   0  0  0  0  0  0  0  0  0  0  0  0
    0.3661   -1.7416    0.2143 O   0  0  0  0  0  0  0  0  0  0  0  0
  1  2  1  0  0  0  0
  2 11  1  0  0  0  0
  2  9  1  0  0  0  0
  2  3  1  0  0  0  0
  3  5  1  1  0  0  0
  4 14  1  6  0  0  0
  4  1  1  0  0  0  0
  4  7  1  0  0  0  0
  5 15  1  0  0  0  0
  5 17  1  0  0  0  0
  5 13  1  0  0  0  0
  6 16  1  0  0  0  0
  6  4  1  0  0  0  0
  7  8  1  1  0  0  0
  7 22  1  0  0  0  0
  7  3  1  0  0  0  0
  8 19  1  0  0  0  0
  8 21  1  0  0  0  0
 10  1  1  0  0  0  0
 12  1  1  0  0  0  0
 18  6  1  0  0  0  0
 20  8  1  0  0  0  0
 22  3  1  0  0  0  0
M  END
$$$$
end
 OpenBabel10282513463D

 14 14  0  0  0  0  0  0  0  0999 V2000
   -1.8202    0.5324   -0.8404 C   0  0  0  0  0  0  0  0  0  0  0  0
   -0.5764   -0.2753   -0.6278 C   0  0  0  0  0  0  0  0  0  0  0  0
    0.5975    0.2886   -0.0880 C   0  0  0  0  0  0  0  0  0  0  0  0
    1.5349   -1.7533   -0.1558 C   0  0  0  0  0  0  0  0  0  0  0  0
   -2.4806    0.0774   -1.5919 H   0  0  0  0  0  0  0  0  0  0  0  0
   -2.3825    0.6353    0.0928 H   0  0  0  0  0  0  0  0  0  0  0  0
   -1.5850    1.5614   -1.1581 H   0  0  0  0  0  0  0  0  0  0  0  0
    0.1092    2.3384    0.0111 H   0  0  0  0  0  0  0  0  0  0  0  0
    1.5767    1.8019    0.6602 H   0  0  0  0  0  0  0  0  0  0  0  0
    2.4255   -2.3604    0.0174 H   0  0  0  0  0  0  0  0  0  0  0  0
   -0.6271   -1.5772   -0.8609 N   0  0  0  0  0  0  0  0  0  0  0  0
    0.4764   -2.3270   -0.6987 N   0  0  0  0  0  0  0  0  0  0  0  0
    0.6500    1.6202    0.3169 N   0  0  0  0  0  0  0  0  0  0  0  0
    1.6574   -0.4519    0.1246 N   0  0  0  0  0  4  0  0  0  0  0  0
  1  2  1  0  0  0  0
  1  6  1  0  0  0  0
  2  3  1  0  0  0  0
  3 14  2  0  0  0  0
  3 13  1  0  0  0  0
  4 10  1  0  0  0  0
  4 14  2  0  0  0  0
  5  1  1  0  0  0  0
  7  1  1  0  0  0  0
  8 13  1  0  0  0  0
 11 12  1  0  0  0  0
 11  2  2  0  0  0  0
 12  4  2  0  0  0  0
 13  9  1  0  0  0  0
M  END
$$$$
end
 OpenBabel10282513463D

 18 18  0  0  1  0  0  0  0  0999 V2000
   -1.6944   -1.8542   -0.9414 C   0  0  0  0  0  0  0  0  0  0  0  0
   -0.7820   -1.7154   -2.0837 C   0  0  1  0  0  3  0  0  0  0  0  0
   -0.7638    2.3493    0.1977 C   0  0  0  0  0  0  0  0  0  0  0  0
   -0.5590   -0.0552   -0.6067 C   0  0  0  0  0  0  0  0  0  0  0  0
    0.1643    1.1206    0.0536 C   0  0  0  0  0  0  0  0  0  0  0  0
    0.8527    0.7523    1.3949 C   0  0  0  0  0  0  0  0  0  0  0  0
   -1.6203    2.1251    0.8296 H   0  0  0  0  0  0  0  0  0  0  0  0
   -1.1587    2.6517   -0.7647 H   0  0  0  0  0  0  0  0  0  0  0  0
   -0.2330    3.1880    0.6232 H   0  0  0  0  0  0  0  0  0  0  0  0
    0.1013    0.4675    2.1417 H   0  0  0  0  0  0  0  0  0  0  0  0
    0.3747    0.0223   -2.5351 H   0  0  0  0  0  0  0  0  0  0  0  0
    0.9434    1.4335   -0.5915 H   0  0  0  0  0  0  0  0  0  0  0  0
    1.5169   -0.0825    1.2686 H   0  0  0  0  0  0  0  0  0  0  0  0
    1.4322    1.6064    1.7628 H   0  0  0  0  0  0  0  0  0  0  0  0
   -2.5474   -2.7739   -0.8910 O   0  0  0  0  0  0  0  0  0  0  0  0
   -1.4931   -0.7863   -0.0660 N   0  0  0  0  0  4  0  0  0  0  0  0
   -0.8397   -2.4739   -3.2388 N   0  0  0  0  0  1  0  0  0  0  0  0
   -0.2028   -0.4821   -1.8613 N   0  0  0  0  0  0  0  0  0  0  0  0
  1 15  2  0  0  0  0
  1 16  2  0  0  0  0
  2 17  1  6  0  0  0
  2 18  1  0  0  0  0
  2  1  1  0  0  0  0
  3  9  1  0  0  0  0
  3  7  1  0  0  0  0
  4 16  2  0  0  0  0
  4  5  1  0  0  0  0
  5  3  1  0  0  0  0
  5  6  1  0  0  0  0
  6 14  1  0  0  0  0
  6 10  1  0  0  0  0
  8  3  1  0  0  0  0
 11 18  1  0  0  0  0
 12  5  1  0  0  0  0
 13  6  1  0  0  0  0
 18  4  1  0  0  0  0
M  END
$$$$
end
 OpenBabel10282513463D

 19 19  0  0  1  0  0  0  0  0999 V2000
   -2.0685   -0.1728    0.8879 C   0  0  0  0  0  0  0  0  0  0  0  0
   -0.9483   -1.1901    0.6457 C   0  0  0  0  0  0  0  0  0  0  0  0
    0.3490    0.2297   -1.0796 C   0  0  0  0  0  0  0  0  0  0  0  0
    0.4192   -0.5846    0.2302 C   0  0  1  0  0  0  0  0  0  0  0  0
    1.0542    0.1693    1.3845 C   0  0  0  0  0  0  0  0  0  0  0  0
    1.4007   -1.5568   -0.5685 C   0  0  0  0  0  0  0  0  0  0  0  0
    1.3966   -0.6026   -1.8310 C   0  0  0  0  0  0  0  0  0  0  0  0
   -2.0222    0.7119    0.2079 H   0  0  0  0  0  0  0  0  0  0  0  0
   -1.3387   -1.8583   -0.1338 H   0  0  0  0  0  0  0  0  0  0  0  0
   -0.8312   -1.7982    1.5310 H   0  0  0  0  0  0  0  0  0  0  0  0
    0.4075    0.9533    1.7539 H   0  0  0  0  0  0  0  0  0  0  0  0
    0.9748   -2.5457   -0.7592 H   0  0  0  0  0  0  0  0  0  0  0  0
    1.0520   -1.0518   -2.7699 H   0  0  0  0  0  0  0  0  0  0  0  0
    1.2998   -0.5264    2.1815 H   0  0  0  0  0  0  0  0  0  0  0  0
    1.9907    0.6450    1.0439 H   0  0  0  0  0  0  0  0  0  0  0  0
    2.3847   -1.6525   -0.1142 H   0  0  0  0  0  0  0  0  0  0  0  0
    2.3219   -0.0446   -2.0145 H   0  0  0  0  0  0  0  0  0  0  0  0
   -0.2915    1.1785   -1.4122 O   0  0  0  0  0  0  0  0  0  0  0  0
   -2.9657   -0.2077    1.7850 N   0  0  0  0  0  2  0  0  0  0  0  0
  1 19  2  0  0  0  0
  2  1  1  0  0  0  0
  2 10  1  0  0  0  0
  3  4  1  0  0  0  0
  4  2  1  1  0  0  0
  4  5  1  0  0  0  0
  5 11  1  0  0  0  0
  5 14  1  0  0  0  0
  6 16  1  0  0  0  0
  6  4  1  0  0  0  0
  7  3  1  0  0  0  0
  7  6  1  0  0  0  0
  8  1  1  0  0  0  0
  9  2  1  0  0  0  0
 12  6  1  0  0  0  0
 13  7  1  0  0  0  0
 15  5  1  0  0  0  0
 17  7  1  0  0  0  0
 18  3  2  0  0  0  0
M  END
$$$$
end
 OpenBabel10282513463D

 16 16  0  0  0  0  0  0  0  0999 V2000
   -1.7809   -0.6288   -0.2604 C   0  0  0  0  0  0  0  0  0  0  0  0
   -1.1341   -1.0781    0.9133 C   0  0  0  0  0  0  0  0  0  0  0  0
   -0.9742    0.3361   -0.8336 C   0  0  0  0  0  0  0  0  0  0  0  0
    0.0098   -0.3519    1.0525 C   0  0  0  0  0  0  0  0  0  0  0  0
    1.2216    1.4515   -0.2873 C   0  0  0  0  0  0  0  0  0  0  0  0
    2.1219    1.0042   -1.4279 C   0  0  0  0  0  0  0  0  0  0  0  0
   -1.5343   -1.8629    1.5681 H   0  0  0  0  0  0  0  0  0  0  0  0
   -1.0809    0.9265   -1.7094 H   0  0  0  0  0  0  0  0  0  0  0  0
    0.7381   -0.4065    1.8400 H   0  0  0  0  0  0  0  0  0  0  0  0
    0.7759    2.4245   -0.5154 H   0  0  0  0  0  0  0  0  0  0  0  0
    1.5407    0.8930   -2.3701 H   0  0  0  0  0  0  0  0  0  0  0  0
    1.8073    1.5542    0.6398 H   0  0  0  0  0  0  0  0  0  0  0  0
    2.5882    0.0369   -1.2464 H   0  0  0  0  0  0  0  0  0  0  0  0
    2.9016    1.7425   -1.5806 H   0  0  0  0  0  0  0  0  0  0  0  0
   -2.9178   -1.0609   -0.7991 O   0  0  0  0  0  1  0  0  0  0  0  0
    0.1308    0.5127   -0.0222 N   0  0  0  0  0  0  0  0  0  0  0  0
  1  2  1  0  0  0  0
  2  4  2  0  0  0  0
  2  7  1  0  0  0  0
  3  1  2  0  0  0  0
  3 16  1  0  0  0  0
  4  9  1  0  0  0  0
  5 16  1  0  0  0  0
  5 12  1  0  0  0  0
  6 13  1  0  0  0  0
  6  5  1  0  0  0  0
  8  3  1  0  0  0  0
 10  5  1  0  0  0  0
 11  6  1  0  0  0  0
 14  6  1  0  0  0  0
 15  1  1  0  0  0  0
 16  4  1  0  0  0  0
M  END
$$$$
end
 OpenBabel10282513463D

 13 13  0  0  0  0  0  0  0  0999 V2000
   -0.8320   -1.4821   -0.0082 C   0  0  0  0  0  3  0  0  0  0  0  0
    0.2158   -2.2024   -0.5439 C   0  0  0  0  0  0  0  0  0  0  0  0
    0.7864   -0.1182   -0.6653 C   0  0  0  0  0  0  0  0  0  0  0  0
    0.7755    2.3077   -0.3272 C   0  0  0  0  0  0  0  0  0  0  0  0
    1.5068    1.1796   -0.9130 C   0  0  0  0  0  0  0  0  0  0  0  0
   -1.7465   -1.7932    0.4006 H   0  0  0  0  0  0  0  0  0  0  0  0
   -0.9810    0.6218    0.1618 H   0  0  0  0  0  0  0  0  0  0  0  0
    0.3088   -3.2817   -0.5966 H   0  0  0  0  0  0  0  0  0  0  0  0
    1.6388    1.3379   -1.9881 H   0  0  0  0  0  0  0  0  0  0  0  0
    2.4866    1.1358   -0.4564 H   0  0  0  0  0  0  0  0  0  0  0  0
   -0.4741   -0.1835   -0.1420 N   0  0  0  0  0  0  0  0  0  0  0  0
    0.2169    3.2268    0.1639 N   0  0  0  0  0  0  0  0  0  0  0  0
    1.2219   -1.3660   -0.9337 N   0  0  0  0  0  4  0  0  0  0  0  0
  1  6  1  0  0  0  0
  2  1  1  0  0  0  0
  3 11  1  0  0  0  0
  4 12  3  0  0  0  0
  5  3  1  0  0  0  0
  5 10  1  0  0  0  0
  5  4  1  0  0  0  0
  8  2  1  0  0  0  0
  9  5  1  0  0  0  0
 11  1  1  0  0  0  0
 11  7  1  0  0  0  0
 13  3  2  0  0  0  0
 13  2  2  0  0  0  0
M  END
$$$$
end
 OpenBabel10282513463D

 18 18  0  0  1  0  0  0  0  0999 V2000
   -1.8560   -1.6421    1.1398 C   0  0  0  0  0  0  0  0  0  0  0  0
   -1.4085   -0.8560   -0.1035 C   0  0  2  0  0  0  0  0  0  0  0  0
   -0.0918   -0.1833    0.0823 C   0  0  0  0  0  0  0  0  0  0  0  0
    1.5278    1.1127   -0.2587 C   0  0  0  0  0  0  0  0  0  0  0  0
    1.8989    0.1634    0.6724 C   0  0  0  0  0  3  0  0  0  0  0  0
    2.2919    2.2191   -0.8511 C   0  0  0  0  0  0  0  0  0  0  0  0
   -2.8276   -2.1037    0.9264 H   0  0  0  0  0  0  0  0  0  0  0  0
   -2.6794    0.5982    0.1819 H   0  0  0  0  0  0  0  0  0  0  0  0
   -1.9800   -0.9894    2.0037 H   0  0  0  0  0  0  0  0  0  0  0  0
   -1.1161   -2.3948    1.3964 H   0  0  0  0  0  0  0  0  0  0  0  0
   -1.3019   -1.5363   -0.9400 H   0  0  0  0  0  0  0  0  0  0  0  0
    1.7166    2.6492   -1.6719 H   0  0  0  0  0  0  0  0  0  0  0  0
    2.4806    3.0193   -0.1475 H   0  0  0  0  0  0  0  0  0  0  0  0
    2.8264    0.0265    1.1897 H   0  0  0  0  0  0  0  0  0  0  0  0
    3.2374    1.8579   -1.2515 H   0  0  0  0  0  0  0  0  0  0  0  0
   -2.4099    0.0616   -0.5488 O   0  0  0  0  0  0  0  0  0  0  0  0
    0.8133   -0.6353    0.8864 O   0  0  0  0  0  0  0  0  0  0  0  0
    0.2548    0.8820   -0.5991 N   0  0  0  0  0  4  0  0  0  0  0  0
  1 10  1  0  0  0  0
  1  9  1  0  0  0  0
  2 11  1  6  0  0  0
  2  3  1  0  0  0  0
  2  1  1  0  0  0  0
  3 17  1  0  0  0  0
  4  5  1  0  0  0  0
  5 17  1  0  0  0  0
  5 14  1  0  0  0  0
  6  4  1  0  0  0  0
  6 13  1  0  0  0  0
  7  1  1  0  0  0  0
 12  6  1  0  0  0  0
 15  6  1  0  0  0  0
 16  2  1  0  0  0  0
 16  8  1  0  0  0  0
 18  4  2  0  0  0  0
 18  3  2  0  0  0  0
M  END
$$$$
end
 OpenBabel10282513463D

 12 12  0  0  0  0  0  0  0  0999 V2000
   -0.6469   -0.7779   -1.7672 C   0  0  0  0  0  0  0  0  0  0  0  0
    0.1010    0.8381   -0.5492 C   0  0  0  0  0  0  0  0  0  0  0  0
    0.4962    2.0667   -0.0543 C   0  0  0  0  0  0  0  0  0  0  0  0
    0.8300    3.1077    0.4855 C   0  0  0  0  0  3  0  0  0  0  0  0
    1.0436   -0.6191    1.2640 C   0  0  0  0  0  0  0  0  0  0  0  0
   -1.1093   -1.3175   -2.5688 H   0  0  0  0  0  0  0  0  0  0  0  0
    0.8070   -1.6250    1.6013 H   0  0  0  0  0  0  0  0  0  0  0  0
    0.7472    0.1134    2.0395 H   0  0  0  0  0  0  0  0  0  0  0  0
    2.1296   -0.5177    1.1331 H   0  0  0  0  0  0  0  0  0  0  0  0
   -0.6038    0.5860   -1.6683 N   0  0  0  0  0  4  0  0  0  0  0  0
   -0.0706   -1.3800   -0.7425 N   0  0  0  0  0  0  0  0  0  0  0  0
    0.3704   -0.3928    0.0063 N   0  0  0  0  0  0  0  0  0  0  0  0
  1 10  2  0  0  0  0
  1 11  2  0  0  0  0
  2  3  1  0  0  0  0
  2 12  1  0  0  0  0
  3  4  3  0  0  0  0
  5  7  1  0  0  0  0
  5  8  1  0  0  0  0
  6  1  1  0  0  0  0
  9  5  1  0  0  0  0
 10  2  2  0  0  0  0
 11 12  1  0  0  0  0
 12  5  1  0  0  0  0
M  END
$$$$
end
 OpenBabel10282513463D

 20 19  0  0  1  0  0  0  0  0999 V2000
   -0.9782    1.6240   -1.1775 C   0  0  0  0  0  0  0  0  0  0  0  0
    0.1041    0.5242   -1.0217 C   0  0  1  0  0  0  0  0  0  0  0  0
    0.4159   -1.3696   -2.3636 C   0  0  0  0  0  0  0  0  0  0  0  0
    0.4192    0.2510    0.4473 C   0  0  0  0  0  0  0  0  0  0  0  0
    1.3507   -0.9233    0.6825 C   0  0  0  0  0  0  0  0  0  0  0  0
    1.7500   -1.0833    2.1550 C   0  0  0  0  0  0  0  0  0  0  0  0
   -1.8825    1.3100   -0.6731 H   0  0  0  0  0  0  0  0  0  0  0  0
   -1.2217    1.7724   -2.2276 H   0  0  0  0  0  0  0  0  0  0  0  0
   -0.6176    2.5390   -0.7590 H   0  0  0  0  0  0  0  0  0  0  0  0
   -0.5303    0.0912    1.0030 H   0  0  0  0  0  0  0  0  0  0  0  0
    0.8615   -1.8526    0.3192 H   0  0  0  0  0  0  0  0  0  0  0  0
    0.8470   -1.2051    2.7600 H   0  0  0  0  0  0  0  0  0  0  0  0
    0.8716    1.1572    0.8780 H   0  0  0  0  0  0  0  0  0  0  0  0
    1.0078    0.8685   -1.5298 H   0  0  0  0  0  0  0  0  0  0  0  0
    1.4380   -1.0789   -2.4301 H   0  0  0  0  0  0  0  0  0  0  0  0
    2.4047   -1.9369    2.2874 H   0  0  0  0  0  0  0  0  0  0  0  0
    2.2513   -0.8073    0.0751 H   0  0  0  0  0  0  0  0  0  0  0  0
    2.2786   -0.2233    2.5252 H   0  0  0  0  0  0  0  0  0  0  0  0
   -0.4383   -0.6135   -1.6556 O   0  0  0  0  0  0  0  0  0  0  0  0
   -0.0561   -2.3583   -2.9425 O   0  0  0  0  0  0  0  0  0  0  0  0
  1  2  1  0  0  0  0
  1  9  1  0  0  0  0
  1  7  1  0  0  0  0
  2 14  1  6  0  0  0
  2  4  1  0  0  0  0
  3 19  1  0  0  0  0
  4  5  1  0  0  0  0
  4 13  1  0  0  0  0
  4 10  1  0  0  0  0
  5  6  1  0  0  0  0
  6 16  1  0  0  0  0
  6 18  1  0  0  0  0
  6 12  1  0  0  0  0
  8  1  1  0  0  0  0
 11  5  1  0  0  0  0
 15  3  1  0  0  0  0
 17  5  1  0  0  0  0
 19  2  1  0  0  0  0
 20  3  2  0  0  0  0
M  END
$$$$
end
 OpenBabel10282513463D

 16 16  0  0  0  0  0  0  0  0999 V2000
   -1.9958    0.0323   -0.9017 C   0  0  0  0  0  0  0  0  0  0  0  0
   -1.4373   -1.2671    0.9883 C   0  0  0  0  0  3  0  0  0  0  0  0
   -0.5630    0.2658   -1.0722 C   0  0  0  0  0  0  0  0  0  0  0  0
   -0.1437   -0.9131    0.8545 C   0  0  0  0  0  0  0  0  0  0  0  0
   -0.0822    1.0033   -2.2798 C   0  0  0  0  0  0  0  0  0  0  0  0
    0.9276   -1.3093    1.7782 C   0  0  0  0  0  0  0  0  0  0  0  0
   -1.8426   -1.8594    1.7869 H   0  0  0  0  0  0  0  0  0  0  0  0
   -0.5993    0.6665   -3.1727 H   0  0  0  0  0  0  0  0  0  0  0  0
   -0.2621    2.0666   -2.1300 H   0  0  0  0  0  0  0  0  0  0  0  0
    0.6393   -2.0105    2.5382 H   0  0  0  0  0  0  0  0  0  0  0  0
    0.9825    0.8400   -2.3978 H   0  0  0  0  0  0  0  0  0  0  0  0
    1.3635   -0.4268    2.2973 H   0  0  0  0  0  0  0  0  0  0  0  0
    1.7325   -1.7724    1.2067 H   0  0  0  0  0  0  0  0  0  0  0  0
   -2.8609    0.5809   -1.5798 O   0  0  0  0  0  0  0  0  0  0  0  0
   -2.3812   -0.8129    0.1403 O   0  0  0  0  0  0  0  0  0  0  0  0
    0.2777   -0.1172   -0.1403 N   0  0  0  0  0  4  0  0  0  0  0  0
  1 15  1  0  0  0  0
  2  7  1  0  0  0  0
  3  1  1  0  0  0  0
  3 16  2  0  0  0  0
  4  2  1  0  0  0  0
  4  6  1  0  0  0  0
  5  9  1  0  0  0  0
  5  3  1  0  0  0  0
  6 12  1  0  0  0  0
  6 10  1  0  0  0  0
  8  5  1  0  0  0  0
 11  5  1  0  0  0  0
 13  6  1  0  0  0  0
 14  1  2  0  0  0  0
 15  2  1  0  0  0  0
 16  4  2  0  0  0  0
M  END
$$$$
end
 OpenBabel10282513463D

 19 18  0  0  0  0  0  0  0  0999 V2000
   -1.6885   -1.5124    1.2099 C   0  0  0  0  0  0  0  0  0  0  0  0
   -1.1196   -2.9245    0.9701 C   0  0  0  0  0  3  0  0  0  0  0  0
   -0.0263    0.1719    0.5523 C   0  0  0  0  0  0  0  0  0  0  0  0
    1.6974    1.4697   -0.8175 C   0  0  0  0  0  0  0  0  0  0  0  0
    2.7087    1.1917    0.2752 C   0  0  0  0  0  0  0  0  0  0  0  0
   -2.7802   -1.5404    1.1600 H   0  0  0  0  0  0  0  0  0  0  0  0
   -1.4330   -3.3139   -0.0083 H   0  0  0  0  0  0  0  0  0  0  0  0
   -1.4244   -1.1772    2.2094 H   0  0  0  0  0  0  0  0  0  0  0  0
   -1.5378   -0.5691   -0.6554 H   0  0  0  0  0  0  0  0  0  0  0  0
   -0.2047    0.9039   -1.3351 H   0  0  0  0  0  0  0  0  0  0  0  0
   -0.0353   -2.8988    0.9765 H   0  0  0  0  0  0  0  0  0  0  0  0
    1.5649    2.5550   -0.9382 H   0  0  0  0  0  0  0  0  0  0  0  0
    2.0880    1.1420   -1.7872 H   0  0  0  0  0  0  0  0  0  0  0  0
    2.3635    1.5622    1.2497 H   0  0  0  0  0  0  0  0  0  0  0  0
    2.9054    0.1285    0.3895 H   0  0  0  0  0  0  0  0  0  0  0  0
    3.6943    1.6511    0.0612 H   0  0  0  0  0  0  0  0  0  0  0  0
    0.4497    0.1867    1.6435 O   0  0  0  0  0  0  0  0  0  0  0  0
   -1.2115   -0.5484    0.2532 N   0  0  0  0  0  0  0  0  0  0  0  0
    0.4146    0.8339   -0.5756 N   0  0  0  0  0  0  0  0  0  0  0  0
  1  8  1  0  0  0  0
  2 11  1  0  0  0  0
  2  1  1  0  0  0  0
  3 17  2  0  0  0  0
  4 19  1  0  0  0  0
  4  5  1  0  0  0  0
  5 15  1  0  0  0  0
  5 14  1  0  0  0  0
  6  1  1  0  0  0  0
  7  2  1  0  0  0  0
  9 18  1  0  0  0  0
 10 19  1  0  0  0  0
 12  4  1  0  0  0  0
 13  4  1  0  0  0  0
 16  5  1  0  0  0  0
 18  3  1  0  0  0  0
 18  1  1  0  0  0  0
 19  3  1  0  0  0  0
M  END
$$$$
end
 OpenBabel10282513463D

 24 24  0  0  1  0  0  0  0  0999 V2000
   -0.3617   -0.4589    0.3988 C   0  0  1  0  0  0  0  0  0  0  0  0
   -0.3436   -1.4780   -1.9583 C   0  0  0  0  0  0  0  0  0  0  0  0
   -0.1928   -0.1677   -1.1160 C   0  0  2  0  0  0  0  0  0  0  0  0
   -0.0523    0.8160    1.2309 C   0  0  0  0  0  0  0  0  0  0  0  0
    1.2504    0.4118   -1.3624 C   0  0  0  0  0  0  0  0  0  0  0  0
    1.3671    1.3849    0.9784 C   0  0  0  0  0  0  0  0  0  0  0  0
    1.5456    1.6620   -0.5284 C   0  0  0  0  0  0  0  0  0  0  0  0
   -2.1302    0.4421   -1.3011 H   0  0  0  0  0  0  0  0  0  0  0  0
   -1.8878   -0.8722    1.5373 H   0  0  0  0  0  0  0  0  0  0  0  0
   -1.3052   -1.9394   -1.7367 H   0  0  0  0  0  0  0  0  0  0  0  0
   -1.1101    1.1124   -2.4507 H   0  0  0  0  0  0  0  0  0  0  0  0
   -0.7939    1.5723    0.9720 H   0  0  0  0  0  0  0  0  0  0  0  0
   -0.2435   -1.2298   -3.0452 H   0  0  0  0  0  0  0  0  0  0  0  0
   -0.1298    0.5906    2.3004 H   0  0  0  0  0  0  0  0  0  0  0  0
    0.3573   -1.2476    0.6519 H   0  0  0  0  0  0  0  0  0  0  0  0
    0.4268   -2.1855   -1.6997 H   0  0  0  0  0  0  0  0  0  0  0  0
    0.8701    2.4609   -0.8339 H   0  0  0  0  0  0  0  0  0  0  0  0
    1.3591    0.6624   -2.4177 H   0  0  0  0  0  0  0  0  0  0  0  0
    1.4989    2.2895    1.5634 H   0  0  0  0  0  0  0  0  0  0  0  0
    1.9862   -0.3401   -1.1088 H   0  0  0  0  0  0  0  0  0  0  0  0
    2.1330    0.6666    1.2973 H   0  0  0  0  0  0  0  0  0  0  0  0
    2.5864    1.9967   -0.7145 H   0  0  0  0  0  0  0  0  0  0  0  0
   -1.6506   -0.8802    0.5970 O   0  0  0  0  0  0  0  0  0  0  0  0
   -1.1931    0.8392   -1.4931 N   0  0  0  0  0  0  0  0  0  0  0  0
  1 23  1  0  0  0  0
  1 15  1  1  0  0  0
  1  4  1  0  0  0  0
  2 10  1  0  0  0  0
  2 16  1  0  0  0  0
  3  2  1  6  0  0  0
  3  1  1  0  0  0  0
  4 14  1  0  0  0  0
  5  3  1  0  0  0  0
  5 20  1  0  0  0  0
  5  7  1  0  0  0  0
  6  4  1  0  0  0  0
  6 21  1  0  0  0  0
  6 19  1  0  0  0  0
  7  6  1  0  0  0  0
 11 24  1  0  0  0  0
 12  4  1  0  0  0  0
 13  2  1  0  0  0  0
 17  7  1  0  0  0  0
 18  5  1  0  0  0  0
 22  7  1  0  0  0  0
 23  9  1  0  0  0  0
 24  8  1  0  0  0  0
 24  3  1  0  0  0  0
M  END
$$$$
end
 OpenBabel10282513463D

 18 18  0  0  0  0  0  0  0  0999 V2000
   -0.7334   -0.9655    1.7867 C   0  0  0  0  0  0  0  0  0  0  0  0
   -0.8312    1.9401    0.1927 C   0  0  0  0  0  0  0  0  0  0  0  0
    0.1883   -0.4169    0.7560 C   0  0  0  0  0  0  0  0  0  0  0  0
    0.1859    0.8184    0.0593 C   0  0  0  0  0  0  0  0  0  0  0  0
    1.2637   -1.1415    0.2780 C   0  0  0  0  0  0  0  0  0  0  0  0
    1.3013    0.8333   -0.7705 C   0  0  0  0  0  0  0  0  0  0  0  0
    3.0483   -0.8400   -1.2723 C   0  0  0  0  0  0  0  0  0  0  0  0
   -1.6690    1.6681    0.8282 H   0  0  0  0  0  0  0  0  0  0  0  0
   -1.4313   -1.6581    1.3482 H   0  0  0  0  0  0  0  0  0  0  0  0
   -1.3023   -0.1454    2.2391 H   0  0  0  0  0  0  0  0  0  0  0  0
   -1.2590    2.1961   -0.7810 H   0  0  0  0  0  0  0  0  0  0  0  0
   -0.3996    2.8529    0.6058 H   0  0  0  0  0  0  0  0  0  0  0  0
   -0.1831   -1.5061    2.5990 H   0  0  0  0  0  0  0  0  0  0  0  0
    1.5464   -2.1379    0.5596 H   0  0  0  0  0  0  0  0  0  0  0  0
    1.6336    1.5785   -1.4215 H   0  0  0  0  0  0  0  0  0  0  0  0
    3.3911   -1.7380   -0.8843 H   0  0  0  0  0  0  0  0  0  0  0  0
    3.5671   -0.2019   -2.1670 O   0  0  0  0  0  0  0  0  0  0  0  0
    1.9496   -0.3724   -0.5993 N   0  0  0  0  0  0  0  0  0  0  0  0
  1 10  1  0  0  0  0
  1 13  1  0  0  0  0
  2 12  1  0  0  0  0
  2  8  1  0  0  0  0
  3  1  1  0  0  0  0
  4  2  1  0  0  0  0
  4  3  1  0  0  0  0
  5 14  1  0  0  0  0
  5  3  2  0  0  0  0
  6 18  1  0  0  0  0
  6  4  2  0  0  0  0
  7 16  1  0  0  0  0
  7 18  1  0  0  0  0
  9  1  1  0  0  0  0
 11  2  1  0  0  0  0
 15  6  1  0  0  0  0
 17  7  2  0  0  0  0
 18  5  1  0  0  0  0
M  END
$$$$
end
 OpenBabel10282513463D

 18 20  0  0  1  0  0  0  0  0999 V2000
   -1.3395   -0.0814    0.0904 C   0  0  1  0  0  0  0  0  0  0  0  0
   -0.8190   -0.5649   -1.2172 C   0  0  2  0  0  0  0  0  0  0  0  0
   -0.6086    0.8371    1.0825 C   0  0  1  0  0  0  0  0  0  0  0  0
    0.0790    0.2333    2.2054 C   0  0  2  0  0  0  0  0  0  0  0  0
    0.5411   -0.0862   -1.7351 C   0  0  0  0  0  0  0  0  0  0  0  0
    1.0872    1.2415    2.4954 C   0  0  0  0  0  0  0  0  0  0  0  0
   -2.0963   -0.6567    0.5746 H   0  0  0  0  0  0  0  0  0  0  0  0
   -1.0248   -1.5777   -1.5254 H   0  0  0  0  0  0  0  0  0  0  0  0
   -0.9827    1.8869    1.1114 H   0  0  0  0  0  0  0  0  0  0  0  0
   -0.0630   -0.7282    2.6200 H   0  0  0  0  0  0  0  0  0  0  0  0
    0.5088   -0.1709   -2.8318 H   0  0  0  0  0  0  0  0  0  0  0  0
    0.6785    0.9807   -1.5173 H   0  0  0  0  0  0  0  0  0  0  0  0
    0.8499    2.2944    2.6658 H   0  0  0  0  0  0  0  0  0  0  0  0
    1.6223   -0.6641   -0.2447 H   0  0  0  0  0  0  0  0  0  0  0  0
    1.9867    0.9037    3.0080 H   0  0  0  0  0  0  0  0  0  0  0  0
   -1.8404    0.3674   -1.1723 O   0  0  0  0  0  0  0  0  0  0  0  0
    1.5248   -0.9154   -1.2442 O   0  0  0  0  0  0  0  0  0  0  0  0
    0.8983    0.6717    1.1334 N   0  0  2  0  0  0  0  0  0  0  0  0
  1  7  1  1  0  0  0
  1  3  1  0  0  0  0
  2  8  1  6  0  0  0
  2 16  1  0  0  0  0
  2  1  1  0  0  0  0
  3  9  1  1  0  0  0
  3 18  1  0  0  0  0
  3  4  1  0  0  0  0
  4  6  1  0  0  0  0
  4 10  1  1  0  0  0
  5 12  1  0  0  0  0
  5 17  1  0  0  0  0
  5  2  1  0  0  0  0
  6 13  1  0  0  0  0
  6 15  1  0  0  0  0
 11  5  1  0  0  0  0
 16  1  1  0  0  0  0
 17 14  1  0  0  0  0
 18  4  1  0  0  0  0
 18  6  1  1  0  0  0
M  END
$$$$
end
 OpenBabel10282513463D

 18 18  0  0  1  0  0  0  0  0999 V2000
   -1.0099   -1.6750   -0.8095 C   0  0  0  0  0  0  0  0  0  0  0  0
    0.0582   -2.3358    1.1762 C   0  0  0  0  0  0  0  0  0  0  0  0
    0.2884   -0.8812   -0.6616 C   0  0  1  0  0  0  0  0  0  0  0  0
    0.2925    0.4603   -1.2020 C   0  0  0  0  0  0  0  0  0  0  0  0
    0.3487    1.5641   -1.5375 C   0  0  0  0  0  0  0  0  0  0  0  0
    0.5314   -0.9118    0.8722 C   0  0  0  0  0  0  0  0  0  0  0  0
    0.5133    2.8808   -2.0797 C   0  0  0  0  0  0  0  0  0  0  0  0
   -1.8876   -1.0150   -0.8016 H   0  0  0  0  0  0  0  0  0  0  0  0
   -1.0697   -2.2716   -1.7132 H   0  0  0  0  0  0  0  0  0  0  0  0
   -0.2091   -2.4737    2.1879 H   0  0  0  0  0  0  0  0  0  0  0  0
   -0.1504   -0.2175    1.3943 H   0  0  0  0  0  0  0  0  0  0  0  0
   -0.1379    3.6249   -1.5833 H   0  0  0  0  0  0  0  0  0  0  0  0
    0.4014    2.8863   -3.1173 H   0  0  0  0  0  0  0  0  0  0  0  0
    0.8719   -3.0442    0.8974 H   0  0  0  0  0  0  0  0  0  0  0  0
    1.0897   -1.4628   -1.1289 H   0  0  0  0  0  0  0  0  0  0  0  0
    1.5408   -0.6715    1.1661 H   0  0  0  0  0  0  0  0  0  0  0  0
    1.5429    3.3332   -1.8392 H   0  0  0  0  0  0  0  0  0  0  0  0
   -1.0512   -2.5543    0.3597 O   0  0  0  0  0  0  0  0  0  0  0  0
  1  8  1  0  0  0  0
  1  3  1  0  0  0  0
  1 18  1  0  0  0  0
  2 10  1  0  0  0  0
  3 15  1  6  0  0  0
  3  6  1  0  0  0  0
  4  3  1  0  0  0  0
  5  4  3  0  0  0  0
  6 16  1  0  0  0  0
  6  2  1  0  0  0  0
  6 11  1  0  0  0  0
  7 17  1  0  0  0  0
  7 12  1  0  0  0  0
  7  5  1  0  0  0  0
  9  1  1  0  0  0  0
 13  7  1  0  0  0  0
 14  2  1  0  0  0  0
 18  2  1  0  0  0  0
M  END
$$$$
end
 OpenBabel10282513463D

 21 23  0  0  1  0  0  0  0  0999 V2000
   -1.2663   -0.4800   -1.1204 C   0  0  0  0  0  0  0  0  0  0  0  0
   -0.7789    0.8109    2.4319 C   0  0  0  0  0  0  0  0  0  0  0  0
   -0.1110    0.2754   -0.5129 C   0  0  0  0  0  0  0  0  0  0  0  0
    0.0454   -0.2715   -1.8836 C   0  0  0  0  0  0  0  0  0  0  0  0
   -0.0808    1.7873   -0.2277 C   0  0  0  0  0  0  0  0  0  0  0  0
    0.6230    0.6662    1.8732 C   0  0  1  0  0  0  0  0  0  0  0  0
    0.9129   -0.0435    0.5466 C   0  0  2  0  0  0  0  0  0  0  0  0
    1.1085    1.4973    0.7053 C   0  0  1  0  0  0  0  0  0  0  0  0
   -2.1323    0.1048   -1.3918 H   0  0  0  0  0  0  0  0  0  0  0  0
   -1.4796   -1.4770   -0.8104 H   0  0  0  0  0  0  0  0  0  0  0  0
   -1.5133    1.1390    1.7197 H   0  0  0  0  0  0  0  0  0  0  0  0
   -0.9194    2.2963    0.1493 H   0  0  0  0  0  0  0  0  0  0  0  0
   -0.6166   -0.8607    3.3565 H   0  0  0  0  0  0  0  0  0  0  0  0
   -0.7360    1.6300    3.1923 H   0  0  0  0  0  0  0  0  0  0  0  0
    0.0653    0.4446   -2.6868 H   0  0  0  0  0  0  0  0  0  0  0  0
    0.1737    2.4014   -1.1158 H   0  0  0  0  0  0  0  0  0  0  0  0
    0.6975   -1.1059   -2.0318 H   0  0  0  0  0  0  0  0  0  0  0  0
    1.3696    0.4686    2.6009 H   0  0  0  0  0  0  0  0  0  0  0  0
    1.6358   -0.8246    0.5284 H   0  0  0  0  0  0  0  0  0  0  0  0
    1.9784    2.0659    0.7398 H   0  0  0  0  0  0  0  0  0  0  0  0
   -1.2774   -0.3558    3.0176 O   0  0  0  0  0  0  0  0  0  0  0  0
  1 10  1  0  0  0  0
  1  3  1  0  0  0  0
  2 21  1  0  0  0  0
  2 14  1  0  0  0  0
  3  5  1  0  0  0  0
  3  7  1  0  0  0  0
  4  1  1  0  0  0  0
  4  3  1  0  0  0  0
  5 12  1  0  0  0  0
  5  8  1  0  0  0  0
  6  2  1  0  0  0  0
  6 18  1  1  0  0  0
  7 19  1  6  0  0  0
  7  8  1  0  0  0  0
  7  6  1  0  0  0  0
  8 20  1  6  0  0  0
  8  6  1  0  0  0  0
  9  1  1  0  0  0  0
 11  2  1  0  0  0  0
 15  4  1  0  0  0  0
 16  5  1  0  0  0  0
 17  4  1  0  0  0  0
 21 13  1  0  0  0  0
M  END
$$$$
end
 OpenBabel10282513463D

 21 23  0  0  1  0  0  0  0  0999 V2000
   -0.9493    0.1097    1.3290 C   0  0  0  0  0  0  0  0  0  0  0  0
   -0.2397   -1.5165   -0.8135 C   0  0  1  0  0  0  0  0  0  0  0  0
   -0.1928   -0.1783    0.0538 C   0  0  1  0  0  0  0  0  0  0  0  0
   -0.2253    0.6566   -1.3152 C   0  0  1  0  0  0  0  0  0  0  0  0
    0.6162    1.9274   -1.0801 C   0  0  0  0  0  0  0  0  0  0  0  0
    0.7347   -0.5485   -1.5577 C   0  0  1  0  0  0  0  0  0  0  0  0
    1.3446   -0.1182   -0.1670 C   0  0  1  0  0  0  0  0  0  0  0  0
    1.7949    1.3358   -0.3241 C   0  0  0  0  0  0  0  0  0  0  0  0
   -1.9899    0.3167    1.1773 H   0  0  0  0  0  0  0  0  0  0  0  0
   -1.2131   -1.6595   -1.3245 H   0  0  0  0  0  0  0  0  0  0  0  0
   -1.1316    0.7854   -1.8915 H   0  0  0  0  0  0  0  0  0  0  0  0
   -0.8790   -0.7397    2.0006 H   0  0  0  0  0  0  0  0  0  0  0  0
   -0.5329    0.9537    1.8562 H   0  0  0  0  0  0  0  0  0  0  0  0
    0.0419    2.6621   -0.5074 H   0  0  0  0  0  0  0  0  0  0  0  0
    0.3302   -3.3829   -0.9194 H   0  0  0  0  0  0  0  0  0  0  0  0
    0.9029    2.4093   -2.0077 H   0  0  0  0  0  0  0  0  0  0  0  0
    1.3113   -0.7770   -2.4585 H   0  0  0  0  0  0  0  0  0  0  0  0
    1.9715   -0.7669    0.4064 H   0  0  0  0  0  0  0  0  0  0  0  0
    1.9953    1.8359    0.6338 H   0  0  0  0  0  0  0  0  0  0  0  0
    2.7274    1.3608   -0.9109 H   0  0  0  0  0  0  0  0  0  0  0  0
    0.2667   -2.6447   -0.2374 O   0  0  0  0  0  0  0  0  0  0  0  0
  1 13  1  0  0  0  0
  1 12  1  0  0  0  0
  2 10  1  6  0  0  0
  2 21  1  0  0  0  0
  2  3  1  0  0  0  0
  3  1  1  1  0  0  0
  4 11  1  6  0  0  0
  4  5  1  0  0  0  0
  4  3  1  0  0  0  0
  5 14  1  0  0  0  0
  5  8  1  0  0  0  0
  6 17  1  6  0  0  0
  6  4  1  0  0  0  0
  6  2  1  0  0  0  0
  6  7  1  0  0  0  0
  7  3  1  0  0  0  0
  7 18  1  1  0  0  0
  8  7  1  0  0  0  0
  8 19  1  0  0  0  0
  9  1  1  0  0  0  0
 15 21  1  0  0  0  0
 16  5  1  0  0  0  0
 20  8  1  0  0  0  0
M  END
$$$$
end
 OpenBabel10282513463D

 17 17  0  0  1  0  0  0  0  0999 V2000
   -1.4057    0.1965    0.4874 C   0  0  0  0  0  0  0  0  0  0  0  0
   -1.0220    1.1069    1.7377 C   0  0  0  0  0  0  0  0  0  0  0  0
    0.3684   -1.2620   -1.7605 C   0  0  0  0  0  0  0  0  0  0  0  0
    0.3064    1.2776    1.1055 C   0  0  1  0  0  3  0  0  0  0  0  0
    0.9383   -0.3282   -0.7124 C   0  0  0  0  0  0  0  0  0  0  0  0
    1.3940    1.9545    1.4428 C   0  0  0  0  0  0  0  0  0  0  0  0
    2.3624    2.5710    1.7658 C   0  0  0  0  0  0  0  0  0  0  0  0
   -2.1341    0.6694   -0.1697 H   0  0  0  0  0  0  0  0  0  0  0  0
   -1.6960   -0.8116    0.7400 H   0  0  0  0  0  0  0  0  0  0  0  0
   -1.5761    2.0496    1.8938 H   0  0  0  0  0  0  0  0  0  0  0  0
   -1.0442    0.5835    2.7101 H   0  0  0  0  0  0  0  0  0  0  0  0
   -0.5932   -1.6924   -1.4399 H   0  0  0  0  0  0  0  0  0  0  0  0
    0.1861   -0.6908   -2.6491 H   0  0  0  0  0  0  0  0  0  0  0  0
    1.1095   -2.0422   -1.9339 H   0  0  0  0  0  0  0  0  0  0  0  0
    3.1967    3.0966    1.9879 H   0  0  0  0  0  0  0  0  0  0  0  0
    2.1390   -0.1969   -0.5406 O   0  0  0  0  0  0  0  0  0  0  0  0
    0.0196    0.3597    0.0922 N   0  0  0  0  0  0  0  0  0  0  0  0
  1  9  1  0  0  0  0
  1  2  1  0  0  0  0
  2 10  1  0  0  0  0
  2 11  1  0  0  0  0
  3 12  1  0  0  0  0
  3  5  1  0  0  0  0
  4  6  1  1  0  0  0
  4  2  1  0  0  0  0
  5 16  2  0  0  0  0
  5 17  1  0  0  0  0
  6  7  3  0  0  0  0
  7 15  1  0  0  0  0
  8  1  1  0  0  0  0
 13  3  1  0  0  0  0
 14  3  1  0  0  0  0
 17  1  1  0  0  0  0
 17  4  1  0  0  0  0
M  END
$$$$
end
 OpenBabel10282513463D

 18 17  0  0  1  0  0  0  0  0999 V2000
   -2.3597    0.3321   -1.2564 C   0  0  0  0  0  0  0  0  0  0  0  0
   -1.3581    0.8053   -0.8522 C   0  0  0  0  0  0  0  0  0  0  0  0
   -0.6936    2.9796    1.7136 C   0  0  0  0  0  3  0  0  0  0  0  0
   -0.4612    2.1422    0.9429 C   0  0  0  0  0  0  0  0  0  0  0  0
   -0.0804    1.3648   -0.2672 C   0  0  1  0  0  0  0  0  0  0  0  0
    0.7743   -0.3085    1.2457 C   0  0  0  0  0  0  0  0  0  0  0  0
    1.5590   -0.2586   -1.1506 C   0  0  0  0  0  0  0  0  0  0  0  0
    2.6803   -1.2215   -0.8534 C   0  0  0  0  0  0  0  0  0  0  0  0
   -3.3057   -0.0695   -1.5902 H   0  0  0  0  0  0  0  0  0  0  0  0
    0.0039    0.1925    1.8609 H   0  0  0  0  0  0  0  0  0  0  0  0
    0.3598    2.0960   -0.9592 H   0  0  0  0  0  0  0  0  0  0  0  0
    0.7872   -0.7765   -1.8090 H   0  0  0  0  0  0  0  0  0  0  0  0
    1.9124    0.5485   -1.7782 H   0  0  0  0  0  0  0  0  0  0  0  0
    2.3345   -2.2040   -0.5420 H   0  0  0  0  0  0  0  0  0  0  0  0
    3.3009   -1.3579   -1.7632 H   0  0  0  0  0  0  0  0  0  0  0  0
    3.3127   -0.8329   -0.0440 H   0  0  0  0  0  0  0  0  0  0  0  0
    1.3503   -1.2372    1.6583 O   0  0  0  0  0  0  0  0  0  0  0  0
    0.8934    0.2897   -0.0075 N   0  0  0  0  0  0  0  0  0  0  0  0
  1  2  3  0  0  0  0
  2  5  1  0  0  0  0
  4  3  3  0  0  0  0
  5 11  1  6  0  0  0
  5 18  1  0  0  0  0
  5  4  1  0  0  0  0
  6 17  2  0  0  0  0
  6 10  1  0  0  0  0
  7  8  1  0  0  0  0
  7 18  1  0  0  0  0
  8 14  1  0  0  0  0
  8 16  1  0  0  0  0
  9  1  1  0  0  0  0
 12  7  1  0  0  0  0
 13  7  1  0  0  0  0
 15  8  1  0  0  0  0
 18  6  1  0  0  0  0
M  END
$$$$
end
 OpenBabel10282513463D

 18 18  0  0  1  0  0  0  0  0999 V2000
   -0.8094    0.9332    0.3722 C   0  0  2  0  0  0  0  0  0  0  0  0
   -0.3987   -1.3832    1.3042 C   0  0  0  0  0  0  0  0  0  0  0  0
   -0.5001    1.3712   -1.6028 C   0  0  0  0  0  0  0  0  0  0  0  0
   -0.2153    2.1891   -0.3226 C   0  0  0  0  0  0  0  0  0  0  0  0
    0.2457   -0.0675    0.8708 C   0  0  2  0  0  0  0  0  0  0  0  0
    0.5557   -2.4260    1.5939 C   0  0  0  0  0  0  0  0  0  0  0  0
   -1.5359    1.1346    1.1566 H   0  0  0  0  0  0  0  0  0  0  0  0
   -1.0980   -1.7356    0.5204 H   0  0  0  0  0  0  0  0  0  0  0  0
   -0.9925   -1.1930    2.2075 H   0  0  0  0  0  0  0  0  0  0  0  0
   -1.0042    1.8838   -2.4210 H   0  0  0  0  0  0  0  0  0  0  0  0
   -0.8450    3.0716   -0.2340 H   0  0  0  0  0  0  0  0  0  0  0  0
    0.3725    0.8218   -1.9483 H   0  0  0  0  0  0  0  0  0  0  0  0
    0.8198    2.4282   -0.0694 H   0  0  0  0  0  0  0  0  0  0  0  0
    0.9290   -0.2739    0.0386 H   0  0  0  0  0  0  0  0  0  0  0  0
    1.2867   -0.1087    2.4812 H   0  0  0  0  0  0  0  0  0  0  0  0
   -1.4091    0.5387   -0.8494 O   0  0  0  0  0  0  0  0  0  0  0  0
    0.9164    0.5514    1.9212 O   0  0  0  0  0  0  0  0  0  0  0  0
    1.2796   -3.3008    1.8591 N   0  0  0  0  0  0  0  0  0  0  0  0
  1  5  1  0  0  0  0
  1  7  1  1  0  0  0
  2  6  1  0  0  0  0
  2  9  1  0  0  0  0
  3 16  1  0  0  0  0
  3  4  1  0  0  0  0
  4 11  1  0  0  0  0
  4 13  1  0  0  0  0
  4  1  1  0  0  0  0
  5 14  1  6  0  0  0
  5  2  1  0  0  0  0
  5 17  1  0  0  0  0
  6 18  3  0  0  0  0
  8  2  1  0  0  0  0
 10  3  1  0  0  0  0
 12  3  1  0  0  0  0
 16  1  1  0  0  0  0
 17 15  1  0  0  0  0
M  END
$$$$
end
 OpenBabel10282513463D

 29 28  0  0  0  0  0  0  0  0999 V2000
   -2.4715    0.5425    1.5265 C   0  0  0  0  0  0  0  0  0  0  0  0
   -1.5842    0.3823   -1.3874 C   0  0  0  0  0  0  0  0  0  0  0  0
   -1.2638   -0.2800    1.0095 C   0  0  0  0  0  0  0  0  0  0  0  0
   -0.5567    0.2827   -0.2641 C   0  0  0  0  0  0  0  0  0  0  0  0
    0.0494    1.6583    0.0750 C   0  0  0  0  0  0  0  0  0  0  0  0
    0.5558   -0.7492   -0.7361 C   0  0  0  0  0  0  0  0  0  0  0  0
    0.7194    2.3548   -1.0959 C   0  0  0  0  0  0  0  0  0  0  0  0
    1.7659   -0.8623    0.2051 C   0  0  0  0  0  0  0  0  0  0  0  0
    2.8124   -1.8484   -0.2892 C   0  0  0  0  0  0  0  0  0  0  0  0
   -3.2421    0.6214    0.7321 H   0  0  0  0  0  0  0  0  0  0  0  0
   -2.9343    0.0443    2.3876 H   0  0  0  0  0  0  0  0  0  0  0  0
   -2.1620   -0.5619   -1.4633 H   0  0  0  0  0  0  0  0  0  0  0  0
   -2.2601    1.2103   -1.2406 H   0  0  0  0  0  0  0  0  0  0  0  0
   -2.2122    1.5267    1.8729 H   0  0  0  0  0  0  0  0  0  0  0  0
   -1.6009   -1.2868    0.8459 H   0  0  0  0  0  0  0  0  0  0  0  0
   -1.1254    0.5448   -2.3544 H   0  0  0  0  0  0  0  0  0  0  0  0
   -0.7558    2.3145    0.4534 H   0  0  0  0  0  0  0  0  0  0  0  0
   -0.5241   -0.3300    1.8230 H   0  0  0  0  0  0  0  0  0  0  0  0
    0.0859   -1.7238   -0.8632 H   0  0  0  0  0  0  0  0  0  0  0  0
   -0.0690    2.6449   -1.8423 H   0  0  0  0  0  0  0  0  0  0  0  0
    0.7362    1.5770    0.9267 H   0  0  0  0  0  0  0  0  0  0  0  0
    0.9474   -0.4513   -1.7261 H   0  0  0  0  0  0  0  0  0  0  0  0
    1.3859   -1.2004    1.1822 H   0  0  0  0  0  0  0  0  0  0  0  0
    1.1613    3.2552   -0.7484 H   0  0  0  0  0  0  0  0  0  0  0  0
    1.4866    1.7361   -1.5903 H   0  0  0  0  0  0  0  0  0  0  0  0
    2.4042   -2.8261   -0.4718 H   0  0  0  0  0  0  0  0  0  0  0  0
    2.2405    0.1045    0.3425 H   0  0  0  0  0  0  0  0  0  0  0  0
    3.2900   -1.4605   -1.2062 H   0  0  0  0  0  0  0  0  0  0  0  0
    3.6248   -1.9617    0.4283 H   0  0  0  0  0  0  0  0  0  0  0  0
  1 14  1  0  0  0  0
  1 11  1  0  0  0  0
  2 13  1  0  0  0  0
  2  4  1  0  0  0  0
  3  1  1  0  0  0  0
  3 18  1  0  0  0  0
  4  5  1  0  0  0  0
  4  3  1  0  0  0  0
  5 17  1  0  0  0  0
  5 21  1  0  0  0  0
  6  4  1  0  0  0  0
  6  8  1  0  0  0  0
  7 24  1  0  0  0  0
  7  5  1  0  0  0  0
  8 27  1  0  0  0  0
  8 23  1  0  0  0  0
  9  8  1  0  0  0  0
  9 29  1  0  0  0  0
 10  1  1  0  0  0  0
 12  2  1  0  0  0  0
 15  3  1  0  0  0  0
 16  2  1  0  0  0  0
 19  6  1  0  0  0  0
 20  7  1  0  0  0  0
 22  6  1  0  0  0  0
 25  7  1  0  0  0  0
 26  9  1  0  0  0  0
 28  9  1  0  0  0  0
M  END
$$$$
end
 OpenBabel10282513463D

 19 20  0  0  1  0  0  0  0  0999 V2000
   -2.7584   -0.9565   -0.9476 C   0  0  0  0  0  3  0  0  0  0  0  0
   -1.5347   -1.4197   -0.3000 C   0  0  2  0  0  0  0  0  0  0  0  0
   -0.3983   -0.5345   -0.2467 C   0  0  2  0  0  3  0  0  0  0  0  0
    0.0776    0.2979   -1.3575 C   0  0  1  0  0  0  0  0  0  0  0  0
    0.7022   -0.6073    0.7980 C   0  0  0  0  0  0  0  0  0  0  0  0
    1.4064    0.9580   -0.9397 C   0  0  0  0  0  0  0  0  0  0  0  0
    1.5704    0.6560    0.5597 C   0  0  0  0  0  0  0  0  0  0  0  0
   -2.8152    0.0453   -1.3384 H   0  0  0  0  0  0  0  0  0  0  0  0
   -1.6161   -2.1954    0.4395 H   0  0  0  0  0  0  0  0  0  0  0  0
   -1.4894   -1.7626   -2.3922 H   0  0  0  0  0  0  0  0  0  0  0  0
   -0.6904    0.9384   -1.8043 H   0  0  0  0  0  0  0  0  0  0  0  0
    0.3192   -0.6672    1.7951 H   0  0  0  0  0  0  0  0  0  0  0  0
    1.3222   -1.5183    0.6234 H   0  0  0  0  0  0  0  0  0  0  0  0
    1.1832    1.4891    1.1740 H   0  0  0  0  0  0  0  0  0  0  0  0
    1.5112    2.0322   -1.1444 H   0  0  0  0  0  0  0  0  0  0  0  0
    2.1934    0.4647   -1.5230 H   0  0  0  0  0  0  0  0  0  0  0  0
    2.5914    0.5198    0.8657 H   0  0  0  0  0  0  0  0  0  0  0  0
    0.4571   -0.5159   -2.5215 O   0  0  0  0  0  1  0  0  0  0  0  0
   -2.0368   -1.9924   -1.6284 N   0  0  0  0  0  0  0  0  0  0  0  0
  1  2  1  0  0  0  0
  2  3  1  0  0  0  0
  2  9  1  1  0  0  0
  3  5  1  6  0  0  0
  4 11  1  6  0  0  0
  4  6  1  0  0  0  0
  4  3  1  0  0  0  0
  5 12  1  0  0  0  0
  6  7  1  0  0  0  0
  7  5  1  0  0  0  0
  7 17  1  0  0  0  0
  7 14  1  0  0  0  0
  8  1  1  0  0  0  0
 10 19  1  0  0  0  0
 13  5  1  0  0  0  0
 15  6  1  0  0  0  0
 16  6  1  0  0  0  0
 18  4  1  0  0  0  0
 19  1  1  0  0  0  0
 19  2  1  0  0  0  0
M  END
$$$$
end
 OpenBabel10282513463D

 15 15  0  0  0  0  0  0  0  0999 V2000
   -2.3553   -0.7045   -0.3602 C   0  0  0  0  0  0  0  0  0  0  0  0
   -2.0911    0.4674   -1.1371 C   0  0  0  0  0  0  0  0  0  0  0  0
   -0.5842    0.2674    0.3313 C   0  0  0  0  0  0  0  0  0  0  0  0
    0.5167    0.6223    1.3116 C   0  0  0  0  0  0  0  0  0  0  0  0
    1.1914   -0.5973    1.9335 C   0  0  0  0  0  0  0  0  0  0  0  0
   -3.1219   -1.4446   -0.4198 H   0  0  0  0  0  0  0  0  0  0  0  0
   -2.2220    1.8583   -2.1950 H   0  0  0  0  0  0  0  0  0  0  0  0
    0.0813    1.2321    2.1034 H   0  0  0  0  0  0  0  0  0  0  0  0
    0.4483   -1.2131    2.4449 H   0  0  0  0  0  0  0  0  0  0  0  0
    1.2508    1.2125    0.7746 H   0  0  0  0  0  0  0  0  0  0  0  0
    1.6546   -1.2198    1.1886 H   0  0  0  0  0  0  0  0  0  0  0  0
    1.9705   -0.2832    2.6364 H   0  0  0  0  0  0  0  0  0  0  0  0
   -2.8373    1.0634   -2.0784 N   0  0  0  0  0  2  0  0  0  0  0  0
   -1.3301   -0.8306    0.4962 N   0  0  0  0  0  4  0  0  0  0  0  0
   -0.8958    1.0209   -0.6628 N   0  0  0  0  0  4  0  0  0  0  0  0
  1 14  2  0  0  0  0
  2 15  2  0  0  0  0
  2  1  1  0  0  0  0
  3 14  2  0  0  0  0
  3  4  1  0  0  0  0
  4  5  1  0  0  0  0
  4  8  1  0  0  0  0
  5  9  1  0  0  0  0
  5 12  1  0  0  0  0
  6  1  1  0  0  0  0
  7 13  1  0  0  0  0
 10  4  1  0  0  0  0
 11  5  1  0  0  0  0
 13  2  1  0  0  0  0
 15  3  2  0  0  0  0
M  END
$$$$
end
 OpenBabel10282513463D

 15 16  0  0  1  0  0  0  0  0999 V2000
   -1.5389   -0.4007    0.0808 C   0  0  0  0  0  0  0  0  0  0  0  0
   -0.1873   -0.7715    0.3786 C   0  0  0  0  0  0  0  0  0  0  0  0
    0.3428    1.4934    0.5831 C   0  0  0  0  0  0  0  0  0  0  0  0
    0.7825    0.2107    0.6492 C   0  0  1  0  0  3  0  0  0  0  0  0
    1.9549   -0.5636    1.0177 C   0  0  0  0  0  0  0  0  0  0  0  0
   -2.2306   -1.1902   -0.1943 H   0  0  0  0  0  0  0  0  0  0  0  0
   -1.3000    2.6853    0.3335 H   0  0  0  0  0  0  0  0  0  0  0  0
    2.0995   -2.6763    1.1210 H   0  0  0  0  0  0  0  0  0  0  0  0
    2.4425   -0.2237    1.9271 H   0  0  0  0  0  0  0  0  0  0  0  0
    2.9303   -0.3627    0.6112 H   0  0  0  0  0  0  0  0  0  0  0  0
    1.0595    2.5111    0.8938 O   0  0  0  0  0  0  0  0  0  0  0  0
   -1.9247    0.8620    0.0876 N   0  0  0  0  0  0  0  0  0  0  0  0
   -0.9327    1.7503    0.3485 N   0  0  0  0  0  0  0  0  0  0  0  0
    0.2467   -2.0500    0.5162 N   0  0  0  0  0  0  0  0  0  0  0  0
    1.5593   -1.8653    0.9128 N   0  0  0  0  0  0  0  0  0  0  0  0
  1 12  2  0  0  0  0
  1  2  1  0  0  0  0
  2 14  2  0  0  0  0
  3  4  1  0  0  0  0
  3 11  2  0  0  0  0
  4  2  1  1  0  0  0
  4  5  1  0  0  0  0
  5  9  1  0  0  0  0
  6  1  1  0  0  0  0
  7 13  1  0  0  0  0
 10  5  1  0  0  0  0
 12 13  1  0  0  0  0
 13  3  1  0  0  0  0
 14 15  1  0  0  0  0
 15  5  1  0  0  0  0
 15  8  1  0  0  0  0
M  END
$$$$
end
 OpenBabel10282513463D

 19 20  0  0  1  0  0  0  0  0999 V2000
   -2.7395   -0.6782    0.6440 C   0  0  0  0  0  0  0  0  0  0  0  0
   -1.3395   -0.1623    0.4729 C   0  0  0  0  0  0  0  0  0  0  0  0
   -0.9765    0.5117   -0.7248 C   0  0  0  0  0  0  0  0  0  0  0  0
   -0.4185   -0.3449    1.4660 C   0  0  0  0  0  3  0  0  0  0  0  0
    0.2974    1.0014   -0.9773 C   0  0  0  0  0  3  0  0  0  0  0  0
    1.0210   -0.1215    1.2086 C   0  0  2  0  0  0  0  0  0  0  0  0
    1.4104    0.5927   -0.0713 C   0  0  1  0  0  0  0  0  0  0  0  0
    1.7742   -0.8632    0.1035 C   0  0  0  0  0  0  0  0  0  0  0  0
   -3.5158    0.1294    0.6516 H   0  0  0  0  0  0  0  0  0  0  0  0
   -2.9873   -1.3549   -0.1703 H   0  0  0  0  0  0  0  0  0  0  0  0
   -2.8634   -1.2340    1.5718 H   0  0  0  0  0  0  0  0  0  0  0  0
   -1.7640    0.6851   -1.4341 H   0  0  0  0  0  0  0  0  0  0  0  0
   -0.7234   -0.6153    2.4392 H   0  0  0  0  0  0  0  0  0  0  0  0
    0.5718    1.3376   -1.9358 H   0  0  0  0  0  0  0  0  0  0  0  0
    1.1852   -1.5907   -0.4681 H   0  0  0  0  0  0  0  0  0  0  0  0
    1.6101    0.0847    2.1056 H   0  0  0  0  0  0  0  0  0  0  0  0
    2.1699    2.3028    0.2788 H   0  0  0  0  0  0  0  0  0  0  0  0
    2.7918   -1.0896    0.2041 H   0  0  0  0  0  0  0  0  0  0  0  0
    2.5002    1.4425   -0.0540 O   0  0  0  0  0  0  0  0  0  0  0  0
  1  9  1  0  0  0  0
  1 11  1  0  0  0  0
  2  1  1  0  0  0  0
  2  4  1  0  0  0  0
  3  2  2  0  0  0  0
  4 13  1  0  0  0  0
  5  3  1  0  0  0  0
  5  7  1  0  0  0  0
  6  4  1  0  0  0  0
  6 16  1  1  0  0  0
  7 19  1  1  0  0  0
  7  8  1  0  0  0  0
  7  6  1  0  0  0  0
  8 18  1  0  0  0  0
  8  6  1  0  0  0  0
 10  1  1  0  0  0  0
 12  3  1  0  0  0  0
 14  5  1  0  0  0  0
 15  8  1  0  0  0  0
 19 17  1  0  0  0  0
M  END
$$$$
end
 OpenBabel10282513463D

 22 23  0  0  1  0  0  0  0  0999 V2000
   -2.9797    0.6494   -0.1934 C   0  0  0  0  0  3  0  0  0  0  0  0
   -1.5428    1.1842   -0.2278 C   0  0  0  0  0  0  0  0  0  0  0  0
   -1.1510   -2.1457    0.5349 C   0  0  0  0  0  0  0  0  0  0  0  0
   -0.5088    0.3770    0.6101 C   0  0  1  0  0  0  0  0  0  0  0  0
   -0.1842   -1.0749    0.1389 C   0  0  1  0  0  0  0  0  0  0  0  0
    0.8428    1.0535    0.6431 C   0  0  1  0  0  0  0  0  0  0  0  0
    1.2640   -1.3445    0.7149 C   0  0  0  0  0  0  0  0  0  0  0  0
    1.8956    0.0304    0.8135 C   0  0  1  0  0  0  0  0  0  0  0  0
   -3.3632    0.5953    0.8438 H   0  0  0  0  0  0  0  0  0  0  0  0
   -3.0280   -0.3352   -0.6327 H   0  0  0  0  0  0  0  0  0  0  0  0
   -2.1220   -2.0467    0.0656 H   0  0  0  0  0  0  0  0  0  0  0  0
   -1.5641    2.2063    0.1782 H   0  0  0  0  0  0  0  0  0  0  0  0
   -1.3045   -2.2043    1.6225 H   0  0  0  0  0  0  0  0  0  0  0  0
   -1.1484    1.2877   -1.2596 H   0  0  0  0  0  0  0  0  0  0  0  0
   -0.8734    0.3539    1.6264 H   0  0  0  0  0  0  0  0  0  0  0  0
   -0.7909   -3.1482    0.2290 H   0  0  0  0  0  0  0  0  0  0  0  0
   -0.0901   -1.0339   -0.9440 H   0  0  0  0  0  0  0  0  0  0  0  0
    0.9225    2.0605    1.0415 H   0  0  0  0  0  0  0  0  0  0  0  0
    1.2023   -1.7882    1.7159 H   0  0  0  0  0  0  0  0  0  0  0  0
    1.8423   -2.0218    0.1047 H   0  0  0  0  0  0  0  0  0  0  0  0
    2.7701    0.1594    1.4194 H   0  0  0  0  0  0  0  0  0  0  0  0
    1.7591    0.7403   -0.3718 O   0  0  0  0  0  0  0  0  0  0  0  0
  1  9  1  0  0  0  0
  2  1  1  0  0  0  0
  2 12  1  0  0  0  0
  2  4  1  0  0  0  0
  3 13  1  0  0  0  0
  4  6  1  0  0  0  0
  4 15  1  1  0  0  0
  5 17  1  6  0  0  0
  5  3  1  0  0  0  0
  5  4  1  0  0  0  0
  5  7  1  0  0  0  0
  6  8  1  0  0  0  0
  6 18  1  1  0  0  0
  7  8  1  0  0  0  0
  7 19  1  0  0  0  0
  8 21  1  1  0  0  0
 10  1  1  0  0  0  0
 11  3  1  0  0  0  0
 14  2  1  0  0  0  0
 16  3  1  0  0  0  0
 20  7  1  0  0  0  0
 22  6  1  0  0  0  0
 22  8  1  0  0  0  0
M  END
$$$$
end
 OpenBabel10282513463D

 22 24  0  0  1  0  0  0  0  0999 V2000
   -1.5077   -0.3456   -0.3081 C   0  0  0  0  0  0  0  0  0  0  0  0
   -1.4782    2.1576    0.4190 C   0  0  0  0  0  0  0  0  0  0  0  0
   -1.0246    1.0831   -0.5216 C   0  0  1  0  0  0  0  0  0  0  0  0
   -0.2333   -1.1050    0.1701 C   0  0  2  0  0  0  0  0  0  0  0  0
    0.2270   -0.7946    1.6315 C   0  0  0  0  0  0  0  0  0  0  0  0
    0.3825    0.9785   -1.0727 C   0  0  0  0  0  0  0  0  0  0  0  0
    0.9875   -0.2485   -0.3732 C   0  0  1  0  0  0  0  0  0  0  0  0
    1.4461   -0.0117    1.1049 C   0  0  0  0  0  0  0  0  0  0  0  0
   -2.3591   -0.4593    0.3682 H   0  0  0  0  0  0  0  0  0  0  0  0
   -2.2397    1.9349    1.1707 H   0  0  0  0  0  0  0  0  0  0  0  0
   -1.8535   -0.7444   -1.2746 H   0  0  0  0  0  0  0  0  0  0  0  0
   -1.5208    2.8064   -1.5388 H   0  0  0  0  0  0  0  0  0  0  0  0
   -0.7453    2.9069    0.7291 H   0  0  0  0  0  0  0  0  0  0  0  0
   -0.4449   -0.1815    2.1937 H   0  0  0  0  0  0  0  0  0  0  0  0
   -0.2559   -2.1556   -0.0849 H   0  0  0  0  0  0  0  0  0  0  0  0
    0.3474    0.8577   -2.1559 H   0  0  0  0  0  0  0  0  0  0  0  0
    0.4588   -1.7103    2.1933 H   0  0  0  0  0  0  0  0  0  0  0  0
    0.9578    1.8839   -0.9241 H   0  0  0  0  0  0  0  0  0  0  0  0
    1.4974    1.0218    1.4310 H   0  0  0  0  0  0  0  0  0  0  0  0
    1.6939   -0.7950   -0.9852 H   0  0  0  0  0  0  0  0  0  0  0  0
    2.4282   -0.4651    1.3292 H   0  0  0  0  0  0  0  0  0  0  0  0
   -1.9417    2.1051   -0.9506 N   0  0  0  0  0  0  0  0  0  0  0  0
  1  4  1  0  0  0  0
  1  9  1  0  0  0  0
  2 13  1  0  0  0  0
  2 10  1  0  0  0  0
  3  6  1  6  0  0  0
  3  1  1  0  0  0  0
  3  2  1  0  0  0  0
  4 15  1  6  0  0  0
  4  5  1  0  0  0  0
  5 17  1  0  0  0  0
  5 14  1  0  0  0  0
  6 18  1  0  0  0  0
  6  7  1  0  0  0  0
  7 20  1  6  0  0  0
  7  4  1  0  0  0  0
  7  8  1  0  0  0  0
  8 21  1  0  0  0  0
  8 19  1  0  0  0  0
  8  5  1  0  0  0  0
 11  1  1  0  0  0  0
 12 22  1  0  0  0  0
 16  6  1  0  0  0  0
 22  3  1  0  0  0  0
 22  2  1  0  0  0  0
M  END
$$$$
end
 OpenBabel10282513463D

 23 25  0  0  1  0  0  0  0  0999 V2000
   -1.6935    0.5834    0.7637 C   0  0  0  0  0  0  0  0  0  0  0  0
   -0.9548   -1.1446   -2.0781 C   0  0  0  0  0  0  0  0  0  0  0  0
   -0.6007    1.5999    0.3056 C   0  0  2  0  0  0  0  0  0  0  0  0
   -0.5895   -0.4538    0.4149 C   0  0  1  0  0  0  0  0  0  0  0  0
   -0.5712    1.2728   -1.1802 C   0  0  0  0  0  0  0  0  0  0  0  0
   -0.2594   -0.2348   -1.0918 C   0  0  2  0  0  0  0  0  0  0  0  0
    0.4441    0.6034    0.9517 C   0  0  1  0  0  0  0  0  0  0  0  0
    1.3060   -0.3927   -1.0431 C   0  0  0  0  0  0  0  0  0  0  0  0
    1.7629    0.4007    0.2151 C   0  0  0  0  0  0  0  0  0  0  0  0
   -2.6061    0.5569    0.1898 H   0  0  0  0  0  0  0  0  0  0  0  0
   -2.0319   -1.0253   -2.0577 H   0  0  0  0  0  0  0  0  0  0  0  0
   -1.9256    0.6384    1.8234 H   0  0  0  0  0  0  0  0  0  0  0  0
   -1.5132    1.4890   -1.6448 H   0  0  0  0  0  0  0  0  0  0  0  0
   -0.7211   -2.1763   -1.8600 H   0  0  0  0  0  0  0  0  0  0  0  0
   -0.6085   -0.9477   -3.0946 H   0  0  0  0  0  0  0  0  0  0  0  0
   -0.6126    2.6271    0.6104 H   0  0  0  0  0  0  0  0  0  0  0  0
   -0.5892   -1.4712    0.7806 H   0  0  0  0  0  0  0  0  0  0  0  0
    0.1987    1.8155   -1.7525 H   0  0  0  0  0  0  0  0  0  0  0  0
    0.4935    0.6870    2.0235 H   0  0  0  0  0  0  0  0  0  0  0  0
    1.5396   -1.4574   -0.9097 H   0  0  0  0  0  0  0  0  0  0  0  0
    1.7883   -0.0595   -1.9379 H   0  0  0  0  0  0  0  0  0  0  0  0
    2.2346    1.3572   -0.0275 H   0  0  0  0  0  0  0  0  0  0  0  0
    2.5046   -0.1498    0.8074 H   0  0  0  0  0  0  0  0  0  0  0  0
  1 12  1  0  0  0  0
  2 11  1  0  0  0  0
  2 14  1  0  0  0  0
  3 16  1  1  0  0  0
  3  1  1  0  0  0  0
  3  7  1  0  0  0  0
  4  1  1  0  0  0  0
  4 17  1  1  0  0  0
  4  7  1  0  0  0  0
  5  6  1  0  0  0  0
  5  3  1  0  0  0  0
  6  2  1  6  0  0  0
  6  8  1  0  0  0  0
  6  4  1  0  0  0  0
  7 19  1  1  0  0  0
  8 20  1  0  0  0  0
  8  9  1  0  0  0  0
  9 23  1  0  0  0  0
  9  7  1  0  0  0  0
 10  1  1  0  0  0  0
 13  5  1  0  0  0  0
 15  2  1  0  0  0  0
 18  5  1  0  0  0  0
 21  8  1  0  0  0  0
 22  9  1  0  0  0  0
M  END
$$$$
end
 OpenBabel10282513463D

 17 17  0  0  1  0  0  0  0  0999 V2000
   -1.5941    0.5624   -0.2107 C   0  0  2  0  0  0  0  0  0  0  0  0
   -1.1132   -0.8650   -0.4311 C   0  0  0  0  0  0  0  0  0  0  0  0
   -0.3577    0.7840    1.6519 C   0  0  0  0  0  0  0  0  0  0  0  0
   -0.3461    1.3826   -0.5752 C   0  0  1  0  0  0  0  0  0  0  0  0
    0.4127   -0.8887    0.0014 C   0  0  0  0  0  0  0  0  0  0  0  0
    0.5460    0.5967    0.4265 C   0  0  2  0  0  0  0  0  0  0  0  0
   -2.5202    0.8147   -0.7060 H   0  0  0  0  0  0  0  0  0  0  0  0
   -0.4223    2.4296   -0.3180 H   0  0  0  0  0  0  0  0  0  0  0  0
   -0.1028    0.5236   -2.3764 H   0  0  0  0  0  0  0  0  0  0  0  0
    0.6112   -1.6123    0.7771 H   0  0  0  0  0  0  0  0  0  0  0  0
    1.0548   -1.1877   -0.8421 H   0  0  0  0  0  0  0  0  0  0  0  0
    1.6329    0.4756    2.3109 H   0  0  0  0  0 15  0  0  0  0  0  0
    1.5635    0.9322    0.4637 H   0  0  0  0  0  0  0  0  0  0  0  0
   -1.7478   -1.7911   -0.8855 O   0  0  0  0  0  0  0  0  0  0  0  0
   -1.6806    0.7414    1.2068 O   0  0  0  0  0  0  0  0  0  0  0  0
   -0.0029    0.8627    2.7692 O   0  0  0  0  0  0  0  0  0  0  0  0
    0.0756    1.3002   -1.8935 O   0  0  0  0  0  0  0  0  0  0  0  0
  1  7  1  6  0  0  0
  1 15  1  0  0  0  0
  2  1  1  0  0  0  0
  2  5  1  0  0  0  0
  3 16  2  0  0  0  0
  4  8  1  1  0  0  0
  4  1  1  0  0  0  0
  4  6  1  0  0  0  0
  5  6  1  0  0  0  0
  5 10  1  0  0  0  0
  6 13  1  1  0  0  0
  6  3  1  0  0  0  0
  9 17  1  0  0  0  0
 11  5  1  0  0  0  0
 14  2  2  0  0  0  0
 15  3  1  0  0  0  0
 17  4  1  0  0  0  0
M  END
$$$$
end
 OpenBabel10282513463D

 14 14  0  0  0  0  0  0  0  0999 V2000
   -0.4350    0.4190   -0.3218 C   0  0  0  0  0  0  0  0  0  0  0  0
   -0.3013   -1.8816    0.6167 C   0  0  0  0  0  0  0  0  0  0  0  0
   -0.2003    1.7710   -0.2093 C   0  0  0  0  0  3  0  0  0  0  0  0
    0.7498   -2.5501    1.5104 C   0  0  0  0  0  0  0  0  0  0  0  0
   -1.2776   -2.3223    0.8560 H   0  0  0  0  0  0  0  0  0  0  0  0
   -0.3546   -0.0724    1.6750 H   0  0  0  0  0  0  0  0  0  0  0  0
   -0.0785   -2.1191   -0.4431 H   0  0  0  0  0  0  0  0  0  0  0  0
    0.0632    2.3591    0.6316 H   0  0  0  0  0  0  0  0  0  0  0  0
    0.6602   -2.2283    2.5730 H   0  0  0  0  0  0  0  0  0  0  0  0
   -0.3703    2.2911   -1.4126 O   0  0  0  0  0  0  0  0  0  0  0  0
    1.6360   -3.2800    1.1235 O   0  0  0  0  0  0  0  0  0  0  0  0
   -0.7222    0.1420   -1.6066 N   0  0  0  0  0  0  0  0  0  0  0  0
   -0.8028    1.2718   -2.2390 N   0  0  0  0  0  2  0  0  0  0  0  0
   -0.3053   -0.4700    0.7501 N   0  0  0  0  0  0  0  0  0  0  0  0
  1  3  1  0  0  0  0
  1 14  1  0  0  0  0
  2 14  1  0  0  0  0
  2  5  1  0  0  0  0
  2  4  1  0  0  0  0
  3  8  1  0  0  0  0
  4  9  1  0  0  0  0
  7  2  1  0  0  0  0
 10  3  1  0  0  0  0
 11  4  2  0  0  0  0
 12  1  2  0  0  0  0
 13 12  1  0  0  0  0
 13 10  1  0  0  0  0
 14  6  1  0  0  0  0
M  END
$$$$
end
 OpenBabel10282513463D

 19 22  0  0  1  0  0  0  0  0999 V2000
   -1.6696   -0.5173   -0.4633 C   0  0  0  0  0  0  0  0  0  0  0  0
   -0.6031    0.3288   -1.3685 C   0  0  1  0  0  0  0  0  0  0  0  0
   -0.3717   -1.1903    0.2698 C   0  0  2  0  0  0  0  0  0  0  0  0
   -0.2404   -0.7201    1.7239 C   0  0  2  0  0  0  0  0  0  0  0  0
   -0.1009    1.6865   -0.7281 C   0  0  0  0  0  0  0  0  0  0  0  0
    0.4652    0.5791    1.6516 C   0  0  2  0  0  0  0  0  0  0  0  0
    0.8436    0.8158    0.1649 C   0  0  1  0  0  0  0  0  0  0  0  0
    1.1567   -0.5655    2.3874 C   0  0  0  0  0  0  0  0  0  0  0  0
   -1.0599   -0.9566    2.4166 H   0  0  0  0  0  0  0  0  0  0  0  0
   -0.8558    2.2795   -0.2410 H   0  0  0  0  0  0  0  0  0  0  0  0
   -0.6302    0.2430   -2.4419 H   0  0  0  0  0  0  0  0  0  0  0  0
   -0.2543   -2.2707    0.1316 H   0  0  0  0  0  0  0  0  0  0  0  0
    0.1674    1.4422    2.2410 H   0  0  0  0  0  0  0  0  0  0  0  0
    0.4718    2.3075   -1.4160 H   0  0  0  0  0  0  0  0  0  0  0  0
    1.1613   -0.5096    3.4888 H   0  0  0  0  0  0  0  0  0  0  0  0
    1.8913    1.0678    0.0933 H   0  0  0  0  0  0  0  0  0  0  0  0
    2.0503   -1.0107    1.9547 H   0  0  0  0  0  0  0  0  0  0  0  0
   -2.8445   -0.7125   -0.4349 N   0  0  0  0  0  2  0  0  0  0  0  0
    0.4972   -0.4105   -0.6128 N   0  0  2  0  0  0  0  0  0  0  0  0
  1 18  2  0  0  0  0
  1  3  1  0  0  0  0
  2 11  1  6  0  0  0
  2  5  1  0  0  0  0
  2 19  1  0  0  0  0
  2  1  1  0  0  0  0
  3 12  1  6  0  0  0
  3  4  1  0  0  0  0
  4  8  1  0  0  0  0
  4  9  1  1  0  0  0
  5 10  1  0  0  0  0
  5  7  1  0  0  0  0
  6  4  1  0  0  0  0
  6 13  1  1  0  0  0
  6  8  1  0  0  0  0
  7 16  1  6  0  0  0
  7  6  1  0  0  0  0
  8 15  1  0  0  0  0
 14  5  1  0  0  0  0
 17  8  1  0  0  0  0
 19  7  1  0  0  0  0
 19  3  1  0  0  0  0
M  END
$$$$
end
 OpenBabel10282513463D

 14 15  0  0  0  0  0  0  0  0999 V2000
   -0.0437   -0.4907   -2.5536 C   0  0  0  0  0  0  0  0  0  0  0  0
    0.0649    0.6285   -0.7477 C   0  0  0  0  0  0  0  0  0  0  0  0
    0.3773    1.2493    1.4457 C   0  0  0  0  0  3  0  0  0  0  0  0
    0.5706   -0.6250   -0.4111 C   0  0  0  0  0  0  0  0  0  0  0  0
    0.8957    0.0233    1.7076 C   0  0  0  0  0  0  0  0  0  0  0  0
   -0.4145    2.4593   -0.0505 H   0  0  0  0  0  0  0  0  0  0  0  0
   -0.1990   -0.8180   -3.6073 H   0  0  0  0  0  0  0  0  0  0  0  0
    0.3026    1.9987    2.2037 H   0  0  0  0  0  0  0  0  0  0  0  0
    0.8220   -2.2491   -1.7141 H   0  0  0  0  0  0  0  0  0  0  0  0
    1.2573   -0.1988    2.7099 H   0  0  0  0  0  0  0  0  0  0  0  0
   -0.3193    0.6909   -2.0579 N   0  0  0  0  0  4  0  0  0  0  0  0
   -0.0257    1.6046    0.1771 N   0  0  0  0  0  0  0  0  0  0  0  0
    0.5077   -1.3210   -1.5893 N   0  0  0  0  0  0  0  0  0  0  0  0
    0.9632   -0.9848    0.8109 N   0  0  0  0  0  4  0  0  0  0  0  0
  1 11  2  0  0  0  0
  1 13  1  0  0  0  0
  2  4  1  0  0  0  0
  2 12  1  0  0  0  0
  3  5  1  0  0  0  0
  3  8  1  0  0  0  0
  4 14  2  0  0  0  0
  5 10  1  0  0  0  0
  6 12  1  0  0  0  0
  7  1  1  0  0  0  0
  9 13  1  0  0  0  0
 11  2  2  0  0  0  0
 12  3  1  0  0  0  0
 13  4  1  0  0  0  0
 14  5  2  0  0  0  0
M  END
$$$$
end
 OpenBabel10282513463D

 19 19  0  0  0  0  0  0  0  0999 V2000
   -1.7207    1.6516   -0.2792 C   0  0  0  0  0  0  0  0  0  0  0  0
   -0.1098    0.4090    0.4176 C   0  0  0  0  0  0  0  0  0  0  0  0
    0.7620   -0.7970    0.5899 C   0  0  0  0  0  0  0  0  0  0  0  0
    1.8950   -0.7531   -0.4522 C   0  0  0  0  0  0  0  0  0  0  0  0
    2.7845   -1.9762   -0.4799 C   0  0  0  0  0  0  0  0  0  0  0  0
   -3.5671    1.2826   -1.1697 H   0  0  0  0  0  0  0  0  0  0  0  0
   -3.0934    2.8897   -0.9852 H   0  0  0  0  0  0  0  0  0  0  0  0
   -1.6087   -0.3812   -0.8566 H   0  0  0  0  0  0  0  0  0  0  0  0
    0.1612   -1.7170    0.4468 H   0  0  0  0  0  0  0  0  0  0  0  0
    1.1772   -0.8281    1.6107 H   0  0  0  0  0  0  0  0  0  0  0  0
    1.4341   -0.6512   -1.4597 H   0  0  0  0  0  0  0  0  0  0  0  0
    2.2179   -2.8651   -0.7535 H   0  0  0  0  0  0  0  0  0  0  0  0
    2.4692    0.1581   -0.2819 H   0  0  0  0  0  0  0  0  0  0  0  0
    3.2248   -2.1439    0.4948 H   0  0  0  0  0  0  0  0  0  0  0  0
    3.5795   -1.8156   -1.2187 H   0  0  0  0  0  0  0  0  0  0  0  0
   -2.8695    1.9274   -0.9500 N   0  0  0  0  0  0  0  0  0  0  0  0
   -1.2243    0.3834   -0.3408 N   0  0  0  0  0  0  0  0  0  0  0  0
   -0.9055    2.3970    0.4368 N   0  0  0  0  0  0  0  0  0  0  0  0
    0.1094    1.6075    0.8683 N   0  0  0  0  0  0  0  0  0  0  0  0
  1 18  2  0  0  0  0
  2  3  1  0  0  0  0
  2 19  2  0  0  0  0
  3 10  1  0  0  0  0
  4 13  1  0  0  0  0
  4  3  1  0  0  0  0
  5  4  1  0  0  0  0
  5 14  1  0  0  0  0
  6 16  1  0  0  0  0
  7 16  1  0  0  0  0
  8 17  1  0  0  0  0
  9  3  1  0  0  0  0
 11  4  1  0  0  0  0
 12  5  1  0  0  0  0
 15  5  1  0  0  0  0
 16  1  1  0  0  0  0
 17  1  1  0  0  0  0
 17  2  1  0  0  0  0
 18 19  1  0  0  0  0
M  END
$$$$
end
 OpenBabel10282513463D

 21 21  0  0  1  0  0  0  0  0999 V2000
   -1.3702    1.6015   -1.8345 C   0  0  0  0  0  0  0  0  0  0  0  0
   -1.0046   -1.3244    1.6718 C   0  0  0  0  0  0  0  0  0  0  0  0
   -1.0785    0.2543   -1.0889 C   0  0  0  0  0  0  0  0  0  0  0  0
    0.0909   -0.3427    1.2317 C   0  0  2  0  0  0  0  0  0  0  0  0
    0.1097    0.3174   -0.0898 C   0  0  1  0  0  0  0  0  0  0  0  0
    1.4331   -0.6496    1.9501 C   0  0  0  0  0  0  0  0  0  0  0  0
    1.4489    0.5898   -0.7429 C   0  0  0  0  0  0  0  0  0  0  0  0
   -2.2548    1.4509   -2.4944 H   0  0  0  0  0  0  0  0  0  0  0  0
   -1.9545   -0.0549   -0.5517 H   0  0  0  0  0  0  0  0  0  0  0  0
   -1.6233   -1.7007    0.8555 H   0  0  0  0  0  0  0  0  0  0  0  0
   -1.6605   -0.8040    2.3947 H   0  0  0  0  0  0  0  0  0  0  0  0
   -1.5723    2.4136   -1.1259 H   0  0  0  0  0  0  0  0  0  0  0  0
   -0.8748   -0.4722   -1.8431 H   0  0  0  0  0  0  0  0  0  0  0  0
   -0.5756   -2.2014    2.1706 H   0  0  0  0  0  0  0  0  0  0  0  0
   -0.5543    1.9169   -2.4696 H   0  0  0  0  0  0  0  0  0  0  0  0
    1.4125    1.4440   -1.4446 H   0  0  0  0  0  0  0  0  0  0  0  0
    1.8249   -1.7638    1.8143 H   0  0  0  0  0  0  0  0  0  0  0  0
    1.7830   -0.2801   -1.3389 H   0  0  0  0  0  0  0  0  0  0  0  0
    2.2322    0.8244   -0.0475 H   0  0  0  0  0  0  0  0  0  0  0  0
   -0.1719    1.0218    1.0882 O   0  0  0  0  0  0  0  0  0  0  0  0
    2.1359    0.0166    2.5847 O   0  0  0  0  0  0  0  0  0  0  0  0
  1 12  1  0  0  0  0
  1  3  1  0  0  0  0
  2 14  1  0  0  0  0
  2 11  1  0  0  0  0
  3  9  1  0  0  0  0
  4  2  1  0  0  0  0
  4  6  1  1  0  0  0
  5  3  1  6  0  0  0
  5 20  1  0  0  0  0
  5  4  1  0  0  0  0
  6 21  2  0  0  0  0
  7  5  1  0  0  0  0
  7 19  1  0  0  0  0
  8  1  1  0  0  0  0
 10  2  1  0  0  0  0
 13  3  1  0  0  0  0
 15  1  1  0  0  0  0
 16  7  1  0  0  0  0
 17  6  1  0  0  0  0
 18  7  1  0  0  0  0
 20  4  1  0  0  0  0
M  END
$$$$
end
 OpenBabel10282513463D

 13 13  0  0  0  0  0  0  0  0999 V2000
   -0.9457    3.0995   -0.8374 C   0  0  0  0  0  3  0  0  0  0  0  0
   -0.3524    2.0041   -0.8075 C   0  0  0  0  0  0  0  0  0  0  0  0
    0.0196    0.1463    1.5981 C   0  0  0  0  0  0  0  0  0  0  0  0
    0.3585    0.8390   -0.8759 C   0  0  0  0  0  0  0  0  0  0  0  0
    1.2587   -1.0442   -0.2336 C   0  0  0  0  0  3  0  0  0  0  0  0
    1.6110   -0.7775   -1.5379 C   0  0  0  0  0  0  0  0  0  0  0  0
   -0.9956    0.5407    1.6109 H   0  0  0  0  0  0  0  0  0  0  0  0
    0.0082   -0.8292    2.1014 H   0  0  0  0  0  0  0  0  0  0  0  0
    0.6685    0.8122    2.1244 H   0  0  0  0  0  0  0  0  0  0  0  0
    1.5647   -1.8437    0.4102 H   0  0  0  0  0  0  0  0  0  0  0  0
    2.2723   -1.3525   -2.1182 H   0  0  0  0  0  0  0  0  0  0  0  0
    0.4827   -0.0413    0.2184 N   0  0  0  0  0  0  0  0  0  0  0  0
    1.0075    0.3506   -1.9241 N   0  0  0  0  0  4  0  0  0  0  0  0
  1  2  3  0  0  0  0
  3  7  1  0  0  0  0
  3  8  1  0  0  0  0
  3  9  1  0  0  0  0
  4  2  1  0  0  0  0
  4 12  1  0  0  0  0
  5 12  1  0  0  0  0
  5 10  1  0  0  0  0
  6  5  1  0  0  0  0
 11  6  1  0  0  0  0
 12  3  1  0  0  0  0
 13  6  2  0  0  0  0
 13  4  2  0  0  0  0
M  END
$$$$
end
 OpenBabel10282513463D

 18 19  0  0  1  0  0  0  0  0999 V2000
   -1.3492    1.1313    0.7708 C   0  0  0  0  0  0  0  0  0  0  0  0
   -1.2878   -0.3665   -0.7084 C   0  0  2  0  0  0  0  0  0  0  0  0
   -0.3700   -1.5335   -0.3913 C   0  0  0  0  0  0  0  0  0  0  0  0
   -0.4072    0.8865   -0.4493 C   0  0  2  0  0  0  0  0  0  0  0  0
    0.7922   -0.8907    0.3821 C   0  0  1  0  0  0  0  0  0  0  0  0
    2.0941   -1.6141    0.0913 C   0  0  0  0  0  0  0  0  0  0  0  0
   -2.0922   -0.8208    1.1249 H   0  0  0  0  0  0  0  0  0  0  0  0
   -1.9981    2.0140    0.6580 H   0  0  0  0  0  0  0  0  0  0  0  0
   -1.8230   -0.4458   -1.6742 H   0  0  0  0  0  0  0  0  0  0  0  0
   -0.8417    1.0755    1.7156 H   0  0  0  0  0  0  0  0  0  0  0  0
   -0.3428    1.6600   -1.1965 H   0  0  0  0  0  0  0  0  0  0  0  0
    0.5282   -0.9236    1.4209 H   0  0  0  0  0  0  0  0  0  0  0  0
    2.0253   -2.6294    0.4343 H   0  0  0  0  0  0  0  0  0  0  0  0
    2.2903   -1.6162   -0.9792 H   0  0  0  0  0  0  0  0  0  0  0  0
    2.8986   -1.0875    0.6310 H   0  0  0  0  0  0  0  0  0  0  0  0
   -0.5442   -2.6761   -0.6661 O   0  0  0  0  0  0  0  0  0  0  0  0
    0.8910    0.4096   -0.1127 O   0  0  0  0  0  0  0  0  0  0  0  0
   -2.1633   -0.0770    0.4376 N   0  0  0  0  0  0  0  0  0  0  0  0
  1 10  1  0  0  0  0
  2  9  1  6  0  0  0
  2  4  1  0  0  0  0
  2  3  1  0  0  0  0
  2 18  1  0  0  0  0
  3  5  1  0  0  0  0
  4 11  1  6  0  0  0
  4 17  1  0  0  0  0
  4  1  1  0  0  0  0
  5 12  1  1  0  0  0
  6  5  1  0  0  0  0
  6 13  1  0  0  0  0
  6 15  1  0  0  0  0
  8  1  1  0  0  0  0
 14  6  1  0  0  0  0
 16  3  2  0  0  0  0
 17  5  1  0  0  0  0
 18  1  1  0  0  0  0
 18  7  1  0  0  0  0
M  END
$$$$
end
 OpenBabel10282513463D

 21 21  0  0  1  0  0  0  0  0999 V2000
   -2.2090    1.8620    1.8861 C   0  0  0  0  0  0  0  0  0  0  0  0
   -0.6798    0.1624    1.2141 C   0  0  0  0  0  0  0  0  0  0  0  0
   -0.5180   -1.3734   -1.4893 C   0  0  0  0  0  0  0  0  0  0  0  0
    0.7731   -0.8639   -0.8217 C   0  0  2  0  0  0  0  0  0  0  0  0
    0.6990   -0.1666    0.6195 C   0  0  1  0  0  0  0  0  0  0  0  0
    1.3856    0.4316   -1.4162 C   0  0  0  0  0  0  0  0  0  0  0  0
    1.6124    0.9574    0.0480 C   0  0  0  0  0  0  0  0  0  0  0  0
   -2.8590    0.9952    2.0828 H   0  0  0  0  0  0  0  0  0  0  0  0
   -2.6631    2.5506    1.1718 H   0  0  0  0  0  0  0  0  0  0  0  0
   -2.0300    2.3770    2.8188 H   0  0  0  0  0  0  0  0  0  0  0  0
   -1.1898   -0.5744   -1.6853 H   0  0  0  0  0  0  0  0  0  0  0  0
   -1.0087   -2.0951   -0.8385 H   0  0  0  0  0  0  0  0  0  0  0  0
   -0.3076   -1.8642   -2.4534 H   0  0  0  0  0  0  0  0  0  0  0  0
    0.6580    1.0400   -1.9751 H   0  0  0  0  0  0  0  0  0  0  0  0
    1.1557   -0.7562    1.4069 H   0  0  0  0  0  0  0  0  0  0  0  0
    1.2453    1.9521    0.2245 H   0  0  0  0  0  0  0  0  0  0  0  0
    1.5198   -1.6568   -0.8022 H   0  0  0  0  0  0  0  0  0  0  0  0
    2.2523    0.3243   -2.0781 H   0  0  0  0  0  0  0  0  0  0  0  0
    2.6493    0.8461    0.3330 H   0  0  0  0  0  0  0  0  0  0  0  0
   -1.5063   -0.6907    1.2632 O   0  0  0  0  0  0  0  0  0  0  0  0
   -0.9837    1.4572    1.3408 O   0  0  0  0  0  0  0  0  0  0  0  0
  1  8  1  0  0  0  0
  1 10  1  0  0  0  0
  2 20  2  0  0  0  0
  2 21  1  0  0  0  0
  3 12  1  0  0  0  0
  3  4  1  0  0  0  0
  4 17  1  1  0  0  0
  4  5  1  0  0  0  0
  5  2  1  0  0  0  0
  5 15  1  1  0  0  0
  6  4  1  0  0  0  0
  6  7  1  0  0  0  0
  7 16  1  0  0  0  0
  7 19  1  0  0  0  0
  7  5  1  0  0  0  0
  9  1  1  0  0  0  0
 11  3  1  0  0  0  0
 13  3  1  0  0  0  0
 14  6  1  0  0  0  0
 18  6  1  0  0  0  0
 21  1  1  0  0  0  0
M  END
$$$$
end
 OpenBabel10282513463D

 14 14  0  0  1  0  0  0  0  0999 V2000
   -1.3015    0.6616   -1.9725 C   0  0  0  0  0  0  0  0  0  0  0  0
   -0.0016    0.5677   -1.2950 C   0  0  2  0  0  0  0  0  0  0  0  0
    0.3911   -0.8699   -0.8524 C   0  0  0  0  0  0  0  0  0  0  0  0
    0.8987   -0.7160    0.6070 C   0  0  0  0  0  0  0  0  0  0  0  0
    1.0096    0.8184    0.7068 C   0  0  0  0  0  0  0  0  0  0  0  0
   -0.4880   -1.5370   -0.8942 H   0  0  0  0  0  0  0  0  0  0  0  0
    0.1806   -1.1088    1.3133 H   0  0  0  0  0  0  0  0  0  0  0  0
    0.7743    1.0312   -1.9093 H   0  0  0  0  0  0  0  0  0  0  0  0
    0.8679    1.1779    1.7415 H   0  0  0  0  0  0  0  0  0  0  0  0
    1.1618   -1.2826   -1.4923 H   0  0  0  0  0  0  0  0  0  0  0  0
    1.8594   -1.2151    0.8207 H   0  0  0  0  0  0  0  0  0  0  0  0
    1.9731    1.1809    0.3412 H   0  0  0  0  0  0  0  0  0  0  0  0
   -0.0258    1.3369   -0.0752 O   0  0  0  0  0  0  0  0  0  0  0  0
   -2.3305    0.7472   -2.5303 N   0  0  0  0  0  0  0  0  0  0  0  0
  1  2  1  0  0  0  0
  2  8  1  6  0  0  0
  2  3  1  0  0  0  0
  2 13  1  0  0  0  0
  3  4  1  0  0  0  0
  4  5  1  0  0  0  0
  4 11  1  0  0  0  0
  4  7  1  0  0  0  0
  5  9  1  0  0  0  0
  6  3  1  0  0  0  0
 10  3  1  0  0  0  0
 12  5  1  0  0  0  0
 13  5  1  0  0  0  0
 14  1  3  0  0  0  0
M  END
$$$$
end
 OpenBabel10282513463D

 17 17  0  0  1  0  0  0  0  0999 V2000
   -1.6221    0.0350   -0.8493 C   0  0  1  0  0  3  0  0  0  0  0  0
   -0.9801   -0.5798    0.3926 C   0  0  0  0  0  0  0  0  0  0  0  0
    0.3774    0.1035    0.3913 C   0  0  0  0  0  0  0  0  0  0  0  0
    0.3860    0.8937   -0.7107 C   0  0  0  0  0  0  0  0  0  0  0  0
    1.4586   -0.1341    1.3747 C   0  0  0  0  0  0  0  0  0  0  0  0
    1.4434    1.5816   -1.4508 C   0  0  0  0  0  0  0  0  0  0  0  0
   -2.9179   -1.3629   -1.4525 H   0  0  0  0  0  0  0  0  0  0  0  0
   -2.9440    0.1009   -2.2903 H   0  0  0  0  0  0  0  0  0  0  0  0
   -1.5757   -0.3846    1.2899 H   0  0  0  0  0  0  0  0  0  0  0  0
   -0.8970   -1.6757    0.2945 H   0  0  0  0  0  0  0  0  0  0  0  0
    1.1143   -0.3493    2.3760 H   0  0  0  0  0  0  0  0  0  0  0  0
    1.1377    1.9439   -2.4393 H   0  0  0  0  0  0  0  0  0  0  0  0
    2.0290   -1.1143    1.1114 H   0  0  0  0  0  0  0  0  0  0  0  0
    2.2152    0.6412    1.3325 H   0  0  0  0  0  0  0  0  0  0  0  0
   -0.8273    1.0041   -1.2981 O   0  0  0  0  0  0  0  0  0  0  0  0
    2.5818    1.6747   -1.0356 O   0  0  0  0  0  0  0  0  0  0  0  0
   -2.7022   -0.3791   -1.4187 N   0  0  0  0  0  0  0  0  0  0  0  0
  1 17  1  6  0  0  0
  1  2  1  0  0  0  0
  2  9  1  0  0  0  0
  3  2  1  0  0  0  0
  3  5  1  0  0  0  0
  4  3  2  0  0  0  0
  5 11  1  0  0  0  0
  6 16  2  0  0  0  0
  6  4  1  0  0  0  0
  7 17  1  0  0  0  0
  8 17  1  0  0  0  0
 10  2  1  0  0  0  0
 12  6  1  0  0  0  0
 13  5  1  0  0  0  0
 14  5  1  0  0  0  0
 15  1  1  0  0  0  0
 15  4  1  0  0  0  0
M  END
$$$$
end
 OpenBabel10282513463D

 21 22  0  0  1  0  0  0  0  0999 V2000
   -1.1710   -0.4613   -0.5246 C   0  0  0  0  0  0  0  0  0  0  0  0
   -0.7443    2.0995   -0.0546 C   0  0  0  0  0  0  0  0  0  0  0  0
   -0.3092    0.8020   -0.6742 C   0  0  1  0  0  0  0  0  0  0  0  0
   -0.0018   -1.2054    0.1458 C   0  0  2  0  0  0  0  0  0  0  0  0
    0.1451   -1.0312    1.6892 C   0  0  0  0  0  0  0  0  0  0  0  0
    0.9126    0.0557    0.0262 C   0  0  1  0  0  0  0  0  0  0  0  0
    2.3101    0.0804   -0.5774 C   0  0  0  0  0  0  0  0  0  0  0  0
   -2.0692   -0.3494    0.1505 H   0  0  0  0  0  0  0  0  0  0  0  0
   -1.6685    2.4717   -0.5433 H   0  0  0  0  0  0  0  0  0  0  0  0
   -1.5459   -0.9146   -1.4334 H   0  0  0  0  0  0  0  0  0  0  0  0
   -0.9641    1.9663    1.0126 H   0  0  0  0  0  0  0  0  0  0  0  0
   -0.7913   -0.7893    2.2463 H   0  0  0  0  0  0  0  0  0  0  0  0
   -0.0875    0.9624   -1.7228 H   0  0  0  0  0  0  0  0  0  0  0  0
    0.0092    2.8712   -0.1755 H   0  0  0  0  0  0  0  0  0  0  0  0
    0.3515   -2.1685   -0.2216 H   0  0  0  0  0  0  0  0  0  0  0  0
    0.7047   -1.8081    2.2072 H   0  0  0  0  0  0  0  0  0  0  0  0
    2.2888   -0.3194   -1.5876 H   0  0  0  0  0  0  0  0  0  0  0  0
    2.6914    1.0709   -0.5724 H   0  0  0  0  0  0  0  0  0  0  0  0
    3.0551   -0.5961    0.9449 H   0  0  0  0  0  0  0  0  0  0  0  0
    0.9431    0.1631    1.4936 O   0  0  0  0  0  0  0  0  0  0  0  0
    3.2326   -0.6157    0.1370 O   0  0  0  0  0  0  0  0  0  0  0  0
  1  4  1  0  0  0  0
  1  8  1  0  0  0  0
  2 11  1  0  0  0  0
  3 13  1  6  0  0  0
  3  1  1  0  0  0  0
  3  2  1  0  0  0  0
  3  6  1  0  0  0  0
  4 15  1  6  0  0  0
  4  5  1  0  0  0  0
  5 16  1  0  0  0  0
  5 12  1  0  0  0  0
  6  7  1  6  0  0  0
  6  4  1  0  0  0  0
  6 20  1  0  0  0  0
  7 18  1  0  0  0  0
  7 21  1  0  0  0  0
  9  2  1  0  0  0  0
 10  1  1  0  0  0  0
 14  2  1  0  0  0  0
 17  7  1  0  0  0  0
 20  5  1  0  0  0  0
 21 19  1  0  0  0  0
M  END
$$$$
end
 OpenBabel10282513463D

 23 23  0  0  1  0  0  0  0  0999 V2000
   -2.3765    0.3405    1.4899 C   0  0  0  0  0  0  0  0  0  0  0  0
   -0.1015   -1.2946    0.8178 C   0  0  0  0  0  0  0  0  0  0  0  0
   -0.3139   -0.3417   -2.1937 C   0  0  0  0  0  0  0  0  0  0  0  0
   -0.3143    0.1384    0.3400 C   0  0  1  0  0  0  0  0  0  0  0  0
    0.3448    0.3969   -1.0195 C   0  0  1  0  0  0  0  0  0  0  0  0
    1.3606   -1.7865    0.7723 C   0  0  0  0  0  0  0  0  0  0  0  0
    1.8259    0.0378   -0.9012 C   0  0  0  0  0  0  0  0  0  0  0  0
    2.2374   -0.9401   -0.0880 C   0  0  0  0  0  0  0  0  0  0  0  0
   -3.3321    0.8791    1.3751 H   0  0  0  0  0  0  0  0  0  0  0  0
   -2.5999   -0.7166    1.7043 H   0  0  0  0  0  0  0  0  0  0  0  0
   -1.8294    0.7695    2.3391 H   0  0  0  0  0  0  0  0  0  0  0  0
   -1.3438    0.0171   -2.2919 H   0  0  0  0  0  0  0  0  0  0  0  0
   -0.7604   -1.9432    0.2291 H   0  0  0  0  0  0  0  0  0  0  0  0
   -0.4609   -1.3705    1.8488 H   0  0  0  0  0  0  0  0  0  0  0  0
   -0.3370   -1.3990   -1.9914 H   0  0  0  0  0  0  0  0  0  0  0  0
    0.2237   -0.1862   -3.1145 H   0  0  0  0  0  0  0  0  0  0  0  0
    0.2172    0.8286    1.0286 H   0  0  0  0  0  0  0  0  0  0  0  0
    0.2530    1.4598   -1.2125 H   0  0  0  0  0  0  0  0  0  0  0  0
    1.3594   -2.8158    0.4116 H   0  0  0  0  0  0  0  0  0  0  0  0
    1.8204   -1.8350    1.7652 H   0  0  0  0  0  0  0  0  0  0  0  0
    2.4978    0.5242   -1.5871 H   0  0  0  0  0  0  0  0  0  0  0  0
    3.2784   -1.1846   -0.0552 H   0  0  0  0  0  0  0  0  0  0  0  0
   -1.6670    0.4800    0.2487 O   0  0  0  0  0  0  0  0  0  0  0  0
  1 10  1  0  0  0  0
  1 11  1  0  0  0  0
  2 14  1  0  0  0  0
  3 15  1  0  0  0  0
  3  5  1  0  0  0  0
  4  2  1  0  0  0  0
  4 17  1  1  0  0  0
  5 18  1  6  0  0  0
  5  7  1  0  0  0  0
  5  4  1  0  0  0  0
  6  2  1  0  0  0  0
  6 20  1  0  0  0  0
  7  8  2  0  0  0  0
  8 22  1  0  0  0  0
  8  6  1  0  0  0  0
  9  1  1  0  0  0  0
 12  3  1  0  0  0  0
 13  2  1  0  0  0  0
 16  3  1  0  0  0  0
 19  6  1  0  0  0  0
 21  7  1  0  0  0  0
 23  4  1  0  0  0  0
 23  1  1  0  0  0  0
M  END
$$$$
end
 OpenBabel10282513463D

 19 20  0  0  1  0  0  0  0  0999 V2000
   -1.6166    0.6316    0.0590 C   0  0  0  0  0  0  0  0  0  0  0  0
   -0.9490    0.5370    1.4456 C   0  0  1  0  0  0  0  0  0  0  0  0
   -0.5464   -0.9714    1.4055 C   0  0  0  0  0  0  0  0  0  0  0  0
   -0.5390   -0.0944   -0.7346 C   0  0  1  0  0  0  0  0  0  0  0  0
    0.3041    1.4152    1.5262 C   0  0  0  0  0  0  0  0  0  0  0  0
    0.6720    0.8400   -0.9436 C   0  0  0  0  0  0  0  0  0  0  0  0
    1.3102    1.1933    0.4182 C   0  0  0  0  0  0  0  0  0  0  0  0
   -2.5546    0.0159    0.0571 H   0  0  0  0  0  0  0  0  0  0  0  0
   -1.8547    1.6316   -0.2678 H   0  0  0  0  0  0  0  0  0  0  0  0
   -1.6008    0.8020    2.2873 H   0  0  0  0  0  0  0  0  0  0  0  0
   -1.4508   -1.5865    1.6135 H   0  0  0  0  0  0  0  0  0  0  0  0
   -0.8650   -0.4519   -1.6952 H   0  0  0  0  0  0  0  0  0  0  0  0
    0.2290   -1.2367    2.1166 H   0  0  0  0  0  0  0  0  0  0  0  0
    0.3744    1.7340   -1.4496 H   0  0  0  0  0  0  0  0  0  0  0  0
    1.4012    0.3025   -1.5695 H   0  0  0  0  0  0  0  0  0  0  0  0
    1.9403    0.3412    0.7394 H   0  0  0  0  0  0  0  0  0  0  0  0
    1.9540    2.0582    0.3330 H   0  0  0  0  0  0  0  0  0  0  0  0
   -0.1264   -1.2162    0.0612 O   0  0  0  0  0  0  0  0  0  0  0  0
    0.5089    2.1843    2.4377 O   0  0  0  0  0  0  0  0  0  0  0  0
  1  2  1  0  0  0  0
  2  5  1  0  0  0  0
  2 10  1  1  0  0  0
  3  2  1  0  0  0  0
  3 11  1  0  0  0  0
  3 13  1  0  0  0  0
  4 12  1  6  0  0  0
  4  1  1  0  0  0  0
  4 18  1  0  0  0  0
  5 19  2  0  0  0  0
  6  4  1  0  0  0  0
  6  7  1  0  0  0  0
  7 16  1  0  0  0  0
  7  5  1  0  0  0  0
  8  1  1  0  0  0  0
  9  1  1  0  0  0  0
 14  6  1  0  0  0  0
 15  6  1  0  0  0  0
 17  7  1  0  0  0  0
 18  3  1  0  0  0  0
M  END
$$$$
end
 OpenBabel10282513463D

 24 24  0  0  1  0  0  0  0  0999 V2000
   -1.0694   -1.8262    0.4803 C   0  0  0  0  0  0  0  0  0  0  0  0
   -0.7605   -0.4932   -0.1146 C   0  0  2  0  0  0  0  0  0  0  0  0
    0.1083    1.6062    0.6450 C   0  0  1  0  0  0  0  0  0  0  0  0
    0.2776   -0.5701   -1.2549 C   0  0  0  0  0  0  0  0  0  0  0  0
    0.5923    2.2347    1.9319 C   0  0  0  0  0  0  0  0  0  0  0  0
    0.7199    0.8587   -1.6813 C   0  0  1  0  0  0  0  0  0  0  0  0
    1.1941    1.5840   -0.4255 C   0  0  0  0  0  0  0  0  0  0  0  0
    1.7788    0.8676   -2.8013 C   0  0  0  0  0  3  0  0  0  0  0  0
   -1.8688   -1.7066    1.2182 H   0  0  0  0  0  0  0  0  0  0  0  0
   -1.6510   -0.0224   -0.5045 H   0  0  0  0  0  0  0  0  0  0  0  0
   -1.3793   -2.5439   -0.2901 H   0  0  0  0  0  0  0  0  0  0  0  0
   -0.7550    2.1596    0.2761 H   0  0  0  0  0  0  0  0  0  0  0  0
   -0.2019   -2.2483    1.0028 H   0  0  0  0  0  0  0  0  0  0  0  0
   -0.1589   -1.1396   -2.0830 H   0  0  0  0  0  0  0  0  0  0  0  0
   -0.1492    1.3620   -2.0600 H   0  0  0  0  0  0  0  0  0  0  0  0
   -0.2301    2.2978    2.6470 H   0  0  0  0  0  0  0  0  0  0  0  0
    1.0277    3.1952    1.7893 H   0  0  0  0  0  0  0  0  0  0  0  0
    1.1573   -1.1249   -0.8988 H   0  0  0  0  0  0  0  0  0  0  0  0
    1.3890    1.6307    2.4097 H   0  0  0  0  0  0  0  0  0  0  0  0
    1.5021    2.6142   -0.6391 H   0  0  0  0  0  0  0  0  0  0  0  0
    2.0971    1.1104   -0.0126 H   0  0  0  0  0  0  0  0  0  0  0  0
    1.9953    1.8659   -3.1460 H   0  0  0  0  0  0  0  0  0  0  0  0
    2.7074    0.3942   -2.4485 H   0  0  0  0  0  0  0  0  0  0  0  0
   -0.2879    0.3178    0.9668 O   0  0  0  0  0  0  0  0  0  0  0  0
  1 13  1  0  0  0  0
  1  9  1  0  0  0  0
  2 10  1  6  0  0  0
  2  1  1  0  0  0  0
  2 24  1  0  0  0  0
  3 12  1  6  0  0  0
  3 24  1  0  0  0  0
  3  5  1  0  0  0  0
  4 18  1  0  0  0  0
  4  2  1  0  0  0  0
  5 19  1  0  0  0  0
  5 16  1  0  0  0  0
  6 15  1  6  0  0  0
  6  4  1  0  0  0  0
  6  7  1  0  0  0  0
  7 21  1  0  0  0  0
  7  3  1  0  0  0  0
  8 23  1  0  0  0  0
  8  6  1  0  0  0  0
 11  1  1  0  0  0  0
 14  4  1  0  0  0  0
 17  5  1  0  0  0  0
 20  7  1  0  0  0  0
 22  8  1  0  0  0  0
M  END
$$$$
end
 OpenBabel10282513463D

 17 16  0  0  0  0  0  0  0  0999 V2000
   -2.2964   -1.3425    0.5510 C   0  0  0  0  0  2  0  0  0  0  0  0
   -1.0666   -2.0724    0.5953 C   0  0  0  0  0  0  0  0  0  0  0  0
   -0.1403    3.0971    0.7585 C   0  0  0  0  0  3  0  0  0  0  0  0
    0.2913   -0.1055   -0.3149 C   0  0  0  0  0  0  0  0  0  0  0  0
    0.2857    0.5935    0.9503 C   0  0  0  0  0  0  0  0  0  0  0  0
    0.8632    1.9745    1.0106 C   0  0  0  0  0  0  0  0  0  0  0  0
   -1.3350   -3.0490    0.2412 H   0  0  0  0  0  0  0  0  0  0  0  0
   -0.9598    3.1234    1.4733 H   0  0  0  0  0  0  0  0  0  0  0  0
   -0.6392   -2.1430    1.5978 H   0  0  0  0  0  0  0  0  0  0  0  0
   -0.6245    2.9661   -0.2346 H   0  0  0  0  0  0  0  0  0  0  0  0
   -0.1583   -1.8061   -1.2859 H   0  0  0  0  0  0  0  0  0  0  0  0
    1.2857    2.1335    1.9799 H   0  0  0  0  0  0  0  0  0  0  0  0
    1.6533    2.0699    0.2749 H   0  0  0  0  0  0  0  0  0  0  0  0
   -3.3215   -0.9187    0.5267 O   0  0  0  0  0  1  0  0  0  0  0  0
   -0.1785    0.1211    1.9769 O   0  0  0  0  0  0  0  0  0  0  0  0
    0.7954    0.3716   -1.3348 O   0  0  0  0  0  0  0  0  0  0  0  0
   -0.1349   -1.4751   -0.3451 N   0  0  0  0  0  0  0  0  0  0  0  0
  1  2  1  0  0  0  0
  2  9  1  0  0  0  0
  3  6  1  0  0  0  0
  3  8  1  0  0  0  0
  4  5  1  0  0  0  0
  5  6  1  0  0  0  0
  5 15  2  0  0  0  0
  6 12  1  0  0  0  0
  7  2  1  0  0  0  0
 10  3  1  0  0  0  0
 11 17  1  0  0  0  0
 13  6  1  0  0  0  0
 14  1  1  0  0  0  0
 16  4  2  0  0  0  0
 17  4  1  0  0  0  0
 17  2  1  0  0  0  0
M  END
$$$$
end
 OpenBabel10282513463D

 20 20  0  0  1  0  0  0  0  0999 V2000
   -1.1989   -0.1026    1.8394 C   0  0  0  0  0  0  0  0  0  0  0  0
   -1.0124    0.2395    0.3523 C   0  0  2  0  0  0  0  0  0  0  0  0
   -0.6547   -1.0084   -0.4848 C   0  0  0  0  0  0  0  0  0  0  0  0
    0.1068    1.2822    0.1453 C   0  0  0  0  0  0  0  0  0  0  0  0
    0.3678    0.2982   -2.2230 C   0  0  0  0  0  0  0  0  0  0  0  0
    0.3761    1.5313   -1.3399 C   0  0  0  0  0  0  0  0  0  0  0  0
   -3.0727   -0.7801    1.8235 H   0  0  0  0  0  0  0  0  0  0  0  0
   -1.9477   -2.0042    1.8221 H   0  0  0  0  0  0  0  0  0  0  0  0
   -1.9569    0.6648   -0.0435 H   0  0  0  0  0  0  0  0  0  0  0  0
   -1.4743   -1.7165   -0.4276 H   0  0  0  0  0  0  0  0  0  0  0  0
   -1.4074    0.8174    2.3846 H   0  0  0  0  0  0  0  0  0  0  0  0
   -0.4191    2.1705   -1.7381 H   0  0  0  0  0  0  0  0  0  0  0  0
   -0.2805   -0.4998    2.2588 H   0  0  0  0  0  0  0  0  0  0  0  0
   -0.1674    2.1998    0.6480 H   0  0  0  0  0  0  0  0  0  0  0  0
    0.2297   -1.4946   -0.0890 H   0  0  0  0  0  0  0  0  0  0  0  0
    1.0072    0.9275    0.6233 H   0  0  0  0  0  0  0  0  0  0  0  0
    1.3190    2.0587   -1.5270 H   0  0  0  0  0  0  0  0  0  0  0  0
   -0.4346   -0.7327   -1.8616 O   0  0  0  0  0  0  0  0  0  0  0  0
    0.9444    0.2778   -3.3132 O   0  0  0  0  0  0  0  0  0  0  0  0
   -2.2001   -1.0898    2.1590 N   0  0  0  0  0  0  0  0  0  0  0  0
  1 20  1  0  0  0  0
  1 13  1  0  0  0  0
  1 11  1  0  0  0  0
  2  9  1  6  0  0  0
  2  1  1  0  0  0  0
  3 10  1  0  0  0  0
  3 15  1  0  0  0  0
  3  2  1  0  0  0  0
  4  2  1  0  0  0  0
  4 16  1  0  0  0  0
  4 14  1  0  0  0  0
  5 18  1  0  0  0  0
  5  6  1  0  0  0  0
  6  4  1  0  0  0  0
  7 20  1  0  0  0  0
  8 20  1  0  0  0  0
 12  6  1  0  0  0  0
 17  6  1  0  0  0  0
 18  3  1  0  0  0  0
 19  5  2  0  0  0  0
M  END
$$$$
end
 OpenBabel10282513463D

 20 22  0  0  1  0  0  0  0  0999 V2000
   -1.9173   -1.0566   -0.1585 C   0  0  0  0  0  0  0  0  0  0  0  0
   -1.7537    0.1225   -1.1828 C   0  0  0  0  0  0  0  0  0  0  0  0
   -0.4667   -1.5872    0.0266 C   0  0  1  0  0  0  0  0  0  0  0  0
   -0.2965    0.5073   -1.0530 C   0  0  1  0  0  0  0  0  0  0  0  0
    0.1245    0.7871    0.4657 C   0  0  0  0  0  0  0  0  0  0  0  0
    0.4722   -0.8480   -0.9447 C   0  0  1  0  0  0  0  0  0  0  0  0
    0.6550   -0.6395    0.5591 C   0  0  2  0  0  0  0  0  0  0  0  0
    1.8086   -1.0777    1.3891 C   0  0  0  0  0  0  0  0  0  0  0  0
   -2.6140   -1.8116   -0.5129 H   0  0  0  0  0  0  0  0  0  0  0  0
   -2.4422    0.9219   -1.0295 H   0  0  0  0  0  0  0  0  0  0  0  0
   -2.3277   -0.6643    0.7979 H   0  0  0  0  0  0  0  0  0  0  0  0
   -1.8811   -0.2698   -2.2171 H   0  0  0  0  0  0  0  0  0  0  0  0
   -0.6949    1.1106    1.1184 H   0  0  0  0  0  0  0  0  0  0  0  0
   -0.3170   -2.6335    0.1876 H   0  0  0  0  0  0  0  0  0  0  0  0
    0.0661    1.2233   -1.7575 H   0  0  0  0  0  0  0  0  0  0  0  0
    1.1475   -1.3401   -1.6129 H   0  0  0  0  0  0  0  0  0  0  0  0
    0.9520    1.4696    0.5713 H   0  0  0  0  0  0  0  0  0  0  0  0
    1.5496   -1.1262    2.4278 H   0  0  0  0  0  0  0  0  0  0  0  0
    2.1692   -2.0638    1.0449 H   0  0  0  0  0  0  0  0  0  0  0  0
    2.6421   -0.3535    1.2585 H   0  0  0  0  0  0  0  0  0  0  0  0
  1  3  1  0  0  0  0
  1 11  1  0  0  0  0
  2  4  1  0  0  0  0
  2 10  1  0  0  0  0
  2  1  1  0  0  0  0
  3 14  1  1  0  0  0
  3  7  1  0  0  0  0
  4 15  1  6  0  0  0
  4  6  1  0  0  0  0
  4  5  1  0  0  0  0
  5  7  1  0  0  0  0
  5 17  1  0  0  0  0
  5 13  1  0  0  0  0
  6 16  1  6  0  0  0
  6  3  1  0  0  0  0
  6  7  1  0  0  0  0
  7  8  1  1  0  0  0
  8 18  1  0  0  0  0
  9  1  1  0  0  0  0
 12  2  1  0  0  0  0
 19  8  1  0  0  0  0
 20  8  1  0  0  0  0
M  END
$$$$
end
 OpenBabel10282513463D

 17 17  0  0  0  0  0  0  0  0999 V2000
   -2.0812   -0.0164    0.2662 C   0  0  0  0  0  0  0  0  0  0  0  0
   -1.0037   -2.2820   -0.3056 C   0  0  0  0  0  0  0  0  0  0  0  0
   -0.9020   -0.8592   -0.1280 C   0  0  0  0  0  0  0  0  0  0  0  0
    0.4125   -0.5796   -0.3730 C   0  0  0  0  0  0  0  0  0  0  0  0
    1.1768    0.7190   -0.4684 C   0  0  0  0  0  0  0  0  0  0  0  0
   -2.6387   -0.4891    1.1029 H   0  0  0  0  0  0  0  0  0  0  0  0
   -2.7862    0.0536   -0.5773 H   0  0  0  0  0  0  0  0  0  0  0  0
   -1.9333   -2.8380   -0.2415 H   0  0  0  0  0  0  0  0  0  0  0  0
   -1.7938    0.9734    0.5786 H   0  0  0  0  0  0  0  0  0  0  0  0
    0.7366    2.5785   -0.8836 H   0  0  0  0  0  0  0  0  0  0  0  0
    1.7296    0.8948    0.4764 H   0  0  0  0  0  0  0  0  0  0  0  0
    1.9269    0.6602   -1.2495 H   0  0  0  0  0  0  0  0  0  0  0  0
    2.3892   -2.7853   -1.0329 H   0  0  0  0  0  0  0  0  0  0  0  0
    0.2616    1.7655   -0.7159 O   0  0  0  0  0  0  0  0  0  0  0  0
    2.3408   -1.8564   -0.9649 O   0  0  0  0  0  0  0  0  0  0  0  0
    0.1604   -2.8481   -0.6061 N   0  0  0  0  0  0  0  0  0  0  0  0
    1.0344   -1.8222   -0.6327 N   0  0  0  0  0  0  0  0  0  0  0  0
  1  9  1  0  0  0  0
  1  6  1  0  0  0  0
  2  8  1  0  0  0  0
  2  3  1  0  0  0  0
  3  1  1  0  0  0  0
  4  3  2  0  0  0  0
  5  4  1  0  0  0  0
  5 11  1  0  0  0  0
  7  1  1  0  0  0  0
 10 14  1  0  0  0  0
 12  5  1  0  0  0  0
 13 15  1  0  0  0  0
 14  5  1  0  0  0  0
 15 17  1  0  0  0  0
 16  2  2  0  0  0  0
 17 16  1  0  0  0  0
 17  4  1  0  0  0  0
M  END
$$$$
end
 OpenBabel10282513463D

 15 15  0  0  1  0  0  0  0  0999 V2000
   -1.5605    0.0341   -0.2222 C   0  0  0  0  0  0  0  0  0  0  0  0
   -0.5107   -0.8783   -0.1799 C   0  0  1  0  0  3  0  0  0  0  0  0
   -0.3411   -2.1171   -0.9556 C   0  0  0  0  0  0  0  0  0  0  0  0
    0.3395    1.7774    2.1795 C   0  0  0  0  0  0  0  0  0  0  0  0
    0.4127   -0.3358    0.7743 C   0  0  0  0  0  0  0  0  0  0  0  0
   -2.4671   -0.0781   -0.8031 H   0  0  0  0  0  0  0  0  0  0  0  0
   -1.3263   -2.4263   -1.3519 H   0  0  0  0  0  0  0  0  0  0  0  0
   -0.4506    2.4996    2.3914 H   0  0  0  0  0  0  0  0  0  0  0  0
    0.0773   -2.9629   -0.3757 H   0  0  0  0  0  0  0  0  0  0  0  0
    0.2911   -1.9459   -1.8383 H   0  0  0  0  0  0  0  0  0  0  0  0
    0.5665    1.2512    3.1087 H   0  0  0  0  0  0  0  0  0  0  0  0
    1.2103    2.2805    1.8034 H   0  0  0  0  0  0  0  0  0  0  0  0
    1.4283   -0.8591    1.2732 O   0  0  0  0  0  0  0  0  0  0  0  0
   -1.3626    1.1054    0.5483 N   0  0  0  0  0  0  0  0  0  0  0  0
   -0.1946    0.8644    1.2055 N   0  0  0  0  0  0  0  0  0  0  0  0
  1  2  1  0  0  0  0
  1 14  2  0  0  0  0
  2  3  1  6  0  0  0
  2  5  1  0  0  0  0
  3  9  1  0  0  0  0
  4  8  1  0  0  0  0
  4 11  1  0  0  0  0
  5 15  1  0  0  0  0
  5 13  2  0  0  0  0
  6  1  1  0  0  0  0
  7  3  1  0  0  0  0
 10  3  1  0  0  0  0
 12  4  1  0  0  0  0
 14 15  1  0  0  0  0
 15  4  1  0  0  0  0
M  END
$$$$
end
 OpenBabel10282513463D

 21 22  0  0  1  0  0  0  0  0999 V2000
   -2.1079   -1.2341   -0.7824 C   0  0  0  0  0  0  0  0  0  0  0  0
   -1.4691    1.8512   -1.0960 C   0  0  0  0  0  0  0  0  0  0  0  0
   -0.8095   -0.6374   -1.3821 C   0  0  1  0  0  0  0  0  0  0  0  0
   -0.4125    0.7772   -0.9225 C   0  0  2  0  0  0  0  0  0  0  0  0
   -0.0913   -1.5894   -0.3759 C   0  0  1  0  0  0  0  0  0  0  0  0
   -0.0131    0.6347    0.5137 C   0  0  1  0  0  0  0  0  0  0  0  0
    0.7271   -0.6888    0.5646 C   0  0  0  0  0  0  0  0  0  0  0  0
   -2.6331   -1.9027   -1.4679 H   0  0  0  0  0  0  0  0  0  0  0  0
   -2.8091   -0.5458   -0.3146 H   0  0  0  0  0  0  0  0  0  0  0  0
   -2.3297    1.6860   -0.4593 H   0  0  0  0  0  0  0  0  0  0  0  0
   -1.8156    1.8595   -2.1427 H   0  0  0  0  0  0  0  0  0  0  0  0
   -0.9563    0.4209    1.1336 H   0  0  0  0  0  0  0  0  0  0  0  0
   -1.0734    2.8093   -0.8581 H   0  0  0  0  0  0  0  0  0  0  0  0
   -0.6437   -0.8357   -2.4614 H   0  0  0  0  0  0  0  0  0  0  0  0
    0.4488   -2.4512   -0.7729 H   0  0  0  0  0  0  0  0  0  0  0  0
    0.4906    1.0617   -1.4612 H   0  0  0  0  0  0  0  0  0  0  0  0
    0.8337   -1.0826    1.5597 H   0  0  0  0  0  0  0  0  0  0  0  0
    1.0050    1.5090    1.8961 H   0  0  0  0  0  0  0  0  0  0  0  0
    1.7326   -0.5244    0.1449 H   0  0  0  0  0  0  0  0  0  0  0  0
   -1.3503   -1.9675    0.2035 O   0  0  0  0  0  0  0  0  0  0  0  0
    0.6407    1.7260    1.0021 O   0  0  0  0  0  0  0  0  0  0  0  0
  1  9  1  0  0  0  0
  1 20  1  0  0  0  0
  2  4  1  0  0  0  0
  2 13  1  0  0  0  0
  2 10  1  0  0  0  0
  3 14  1  6  0  0  0
  3  4  1  0  0  0  0
  3  1  1  0  0  0  0
  3  5  1  0  0  0  0
  4 16  1  6  0  0  0
  4  6  1  0  0  0  0
  5 15  1  6  0  0  0
  5 20  1  0  0  0  0
  5  7  1  0  0  0  0
  6  7  1  0  0  0  0
  6 21  1  0  0  0  0
  6 12  1  1  0  0  0
  7 17  1  0  0  0  0
  8  1  1  0  0  0  0
 11  2  1  0  0  0  0
 19  7  1  0  0  0  0
 21 18  1  0  0  0  0
M  END
$$$$
end
 OpenBabel10282513463D

 12 12  0  0  1  0  0  0  0  0999 V2000
   -1.5658   -1.2765    0.9440 C   0  0  0  0  0  0  0  0  0  0  0  0
   -1.2917   -0.2342   -0.8378 C   0  0  0  0  0  0  0  0  0  0  0  0
   -0.4114   -0.6171    0.2620 C   0  0  1  0  0  0  0  0  0  0  0  0
    1.3045    0.9267    0.7448 C   0  0  0  0  0  0  0  0  0  0  0  0
   -3.3285   -0.9931   -0.4246 H   0  0  0  0  0  0  0  0  0  0  0  0
    0.4184   -1.2732   -0.1063 H   0  0  0  0  0  0  0  0  0  0  0  0
    1.7033    1.4326    1.6549 H   0  0  0  0  0  0  0  0  0  0  0  0
   -1.7653   -1.8253    1.9829 O   0  0  0  0  0  0  0  0  0  0  0  0
    0.3057    0.0779    1.1399 O   0  0  0  0  0  0  0  0  0  0  0  0
   -2.3482   -0.9115   -0.2241 N   0  0  0  0  0  0  0  0  0  0  0  0
   -1.2678    0.2479   -2.0606 N   0  0  0  0  0  2  0  0  0  0  0  0
    1.6894    1.1433   -0.4065 N   0  0  0  0  0  2  0  0  0  0  0  0
  1  8  2  0  0  0  0
  2 10  1  0  0  0  0
  2  3  1  0  0  0  0
  3  6  1  6  0  0  0
  3  1  1  0  0  0  0
  3  9  1  0  0  0  0
  4  9  1  0  0  0  0
  4  7  1  0  0  0  0
  5 10  1  0  0  0  0
 10  1  1  0  0  0  0
 11  2  2  0  0  0  0
 12  4  2  0  0  0  0
M  END
$$$$
end
 OpenBabel10282513463D

 14 14  0  0  1  0  0  0  0  0999 V2000
   -1.5974    0.2914   -0.4640 C   0  0  0  0  0  0  0  0  0  0  0  0
   -0.9413   -1.0229   -0.8712 C   0  0  0  0  0  0  0  0  0  0  0  0
   -0.4065    1.3090   -0.5436 C   0  0  1  0  0  0  0  0  0  0  0  0
   -0.5021    2.4418    0.3701 C   0  0  0  0  0  0  0  0  0  0  0  0
    0.4056   -0.9527   -0.7555 C   0  0  0  0  0  0  0  0  0  0  0  0
    0.8268    0.4122   -0.2856 C   0  0  0  0  0  0  0  0  0  0  0  0
   -2.4381    0.5634   -1.0894 H   0  0  0  0  0  0  0  0  0  0  0  0
   -1.9325    0.2097    0.5684 H   0  0  0  0  0  0  0  0  0  0  0  0
   -1.5003   -1.8429   -1.2563 H   0  0  0  0  0  0  0  0  0  0  0  0
   -0.3474    1.7193   -1.5326 H   0  0  0  0  0  0  0  0  0  0  0  0
    1.0941   -1.7554   -0.8583 H   0  0  0  0  0  0  0  0  0  0  0  0
    1.0301    0.3665    0.8092 H   0  0  0  0  0  0  0  0  0  0  0  0
    1.7083    0.7617   -0.8046 H   0  0  0  0  0  0  0  0  0  0  0  0
   -0.5888    3.3963    1.0631 N   0  0  0  0  0  0  0  0  0  0  0  0
  1  8  1  0  0  0  0
  2  5  2  0  0  0  0
  2  1  1  0  0  0  0
  3 10  1  6  0  0  0
  3  1  1  0  0  0  0
  3  6  1  0  0  0  0
  3  4  1  0  0  0  0
  4 14  3  0  0  0  0
  5  6  1  0  0  0  0
  6 12  1  0  0  0  0
  7  1  1  0  0  0  0
  9  2  1  0  0  0  0
 11  5  1  0  0  0  0
 13  6  1  0  0  0  0
M  END
$$$$
end
 OpenBabel10282513463D

 20 21  0  0  0  0  0  0  0  0999 V2000
   -1.3727   -0.1145   -2.2464 C   0  0  0  0  0  0  0  0  0  0  0  0
   -1.0640    1.2932   -1.8833 C   0  0  0  0  0  0  0  0  0  0  0  0
   -0.5796   -0.2277    0.8696 C   0  0  0  0  0  0  0  0  0  0  0  0
   -0.0562    0.1920   -1.6081 C   0  0  0  0  0  0  0  0  0  0  0  0
    0.2052   -0.7825    1.9448 C   0  0  0  0  0  0  0  0  0  0  0  0
    0.2180   -0.1860   -0.2580 C   0  0  0  0  0  0  0  0  0  0  0  0
    1.4599   -0.9966    1.4169 C   0  0  0  0  0  0  0  0  0  0  0  0
    2.6887   -1.5720    2.0536 C   0  0  0  0  0  0  0  0  0  0  0  0
   -2.0910   -0.7066   -1.6525 H   0  0  0  0  0  0  0  0  0  0  0  0
   -1.6104    0.0994    0.9035 H   0  0  0  0  0  0  0  0  0  0  0  0
   -1.3589   -0.4001   -3.3078 H   0  0  0  0  0  0  0  0  0  0  0  0
   -1.5781    1.6909   -1.0148 H   0  0  0  0  0  0  0  0  0  0  0  0
   -0.7890    1.9720   -2.6706 H   0  0  0  0  0  0  0  0  0  0  0  0
   -0.1472   -1.0176    2.9421 H   0  0  0  0  0  0  0  0  0  0  0  0
    0.7778    0.1119   -2.2919 H   0  0  0  0  0  0  0  0  0  0  0  0
    2.2670   -0.6089   -0.5150 H   0  0  0  0  0  0  0  0  0  0  0  0
    2.5940   -1.7178    3.1289 H   0  0  0  0  0  0  0  0  0  0  0  0
    2.9859   -2.4903    1.6124 H   0  0  0  0  0  0  0  0  0  0  0  0
    3.5452   -0.8888    1.9248 H   0  0  0  0  0  0  0  0  0  0  0  0
    1.4561   -0.6352    0.1010 N   0  0  0  0  0  0  0  0  0  0  0  0
  1  2  1  0  0  0  0
  1  9  1  0  0  0  0
  1  4  1  0  0  0  0
  2  4  1  0  0  0  0
  2 12  1  0  0  0  0
  3 10  1  0  0  0  0
  3  5  1  0  0  0  0
  4  6  1  0  0  0  0
  5 14  1  0  0  0  0
  6 20  1  0  0  0  0
  6  3  2  0  0  0  0
  7  5  2  0  0  0  0
  7  8  1  0  0  0  0
  8 17  1  0  0  0  0
 11  1  1  0  0  0  0
 13  2  1  0  0  0  0
 15  4  1  0  0  0  0
 16 20  1  0  0  0  0
 18  8  1  0  0  0  0
 19  8  1  0  0  0  0
 20  7  1  0  0  0  0
M  END
$$$$
end
 OpenBabel10282513463D

 23 23  0  0  1  0  0  0  0  0999 V2000
   -1.7650    1.8675    0.2347 C   0  0  0  0  0  0  0  0  0  0  0  0
   -1.2042    0.4293   -0.0109 C   0  0  2  0  0  0  0  0  0  0  0  0
   -1.0877    0.6711   -2.4803 C   0  0  0  0  0  0  0  0  0  0  0  0
   -0.4008   -0.0050    1.2349 C   0  0  0  0  0  0  0  0  0  0  0  0
    0.0958   -1.4378    1.1558 C   0  0  0  0  0  0  0  0  0  0  0  0
    1.3558   -1.7190    0.3979 C   0  0  0  0  0  0  0  0  0  0  0  0
    1.3557   -1.7700    1.9237 C   0  0  0  0  0  0  0  0  0  0  0  0
   -2.3610    1.8843    1.1681 H   0  0  0  0  0  0  0  0  0  0  0  0
   -2.4439    2.1583   -0.5783 H   0  0  0  0  0  0  0  0  0  0  0  0
   -2.0203   -0.2596   -0.1186 H   0  0  0  0  0  0  0  0  0  0  0  0
   -1.8863   -0.0802   -2.6369 H   0  0  0  0  0  0  0  0  0  0  0  0
   -1.5283    1.6769   -2.5134 H   0  0  0  0  0  0  0  0  0  0  0  0
   -1.0664    0.0889    2.1174 H   0  0  0  0  0  0  0  0  0  0  0  0
   -0.9675    2.6095    0.3154 H   0  0  0  0  0  0  0  0  0  0  0  0
   -0.7162   -2.1561    1.1168 H   0  0  0  0  0  0  0  0  0  0  0  0
   -0.4259    0.5974   -3.3542 H   0  0  0  0  0  0  0  0  0  0  0  0
    0.4687    0.8945   -1.1768 H   0  0  0  0  0  0  0  0  0  0  0  0
    0.4475    0.6777    1.4315 H   0  0  0  0  0  0  0  0  0  0  0  0
    1.4246   -2.6315   -0.1550 H   0  0  0  0  0  0  0  0  0  0  0  0
    1.4535   -2.7790    2.3535 H   0  0  0  0  0  0  0  0  0  0  0  0
    1.8714   -0.8694   -0.0712 H   0  0  0  0  0  0  0  0  0  0  0  0
    1.8511   -0.9906    2.4835 H   0  0  0  0  0  0  0  0  0  0  0  0
   -0.3997    0.3690   -1.2501 N   0  0  0  0  0  0  0  0  0  0  0  0
  1 14  1  0  0  0  0
  1  8  1  0  0  0  0
  2 10  1  6  0  0  0
  2  1  1  0  0  0  0
  2  4  1  0  0  0  0
  3 23  1  0  0  0  0
  4 18  1  0  0  0  0
  4 13  1  0  0  0  0
  5  4  1  0  0  0  0
  5  7  1  0  0  0  0
  6  5  1  0  0  0  0
  6  7  1  0  0  0  0
  7 20  1  0  0  0  0
  7 22  1  0  0  0  0
  9  1  1  0  0  0  0
 11  3  1  0  0  0  0
 12  3  1  0  0  0  0
 15  5  1  0  0  0  0
 16  3  1  0  0  0  0
 19  6  1  0  0  0  0
 21  6  1  0  0  0  0
 23 17  1  0  0  0  0
 23  2  1  0  0  0  0
M  END
$$$$
end
 OpenBabel10282513463D

 20 19  0  0  1  0  0  0  0  0999 V2000
   -1.8492   -0.6104    0.9628 C   0  0  0  0  0  0  0  0  0  0  0  0
   -1.1276   -1.7553    0.2305 C   0  0  0  0  0  0  0  0  0  0  0  0
   -0.2319    0.9244   -0.1395 C   0  0  0  0  0  0  0  0  0  0  0  0
    0.3850   -1.4843    0.1890 C   0  0  0  0  0  0  0  0  0  0  0  0
    0.6867   -0.1196   -0.2915 C   0  0  2  0  0  3  0  0  0  0  0  0
    2.0141    0.1670   -0.8840 C   0  0  0  0  0  3  0  0  0  0  0  0
   -2.9353   -0.6849    0.9134 H   0  0  0  0  0  0  0  0  0  0  0  0
   -2.0454    1.4610    0.6111 H   0  0  0  0  0  0  0  0  0  0  0  0
   -1.5942   -0.6523    2.0539 H   0  0  0  0  0  0  0  0  0  0  0  0
   -1.3522   -2.7099    0.7017 H   0  0  0  0  0  0  0  0  0  0  0  0
   -1.5161   -1.8015   -0.7909 H   0  0  0  0  0  0  0  0  0  0  0  0
    0.8866   -2.2516   -0.4103 H   0  0  0  0  0  0  0  0  0  0  0  0
    0.7882   -1.5880    1.2134 H   0  0  0  0  0  0  0  0  0  0  0  0
    1.3896    2.0930   -0.9587 H   0  0  0  0  0  0  0  0  0  0  0  0
    1.7162    1.5952   -2.1666 H   0  0  0  0  0  0  0  0  0  0  0  0
    2.2078   -0.5196   -1.7189 H   0  0  0  0  0  0  0  0  0  0  0  0
    2.7704   -0.0414   -0.1040 H   0  0  0  0  0  0  0  0  0  0  0  0
   -0.0716    2.1276   -0.5208 O   0  0  0  0  0  0  0  0  0  0  0  0
    2.1832    1.4676   -1.3130 O   0  0  0  0  0  0  0  0  0  0  0  0
   -1.4678    0.6554    0.4360 N   0  0  0  0  0  0  0  0  0  0  0  0
  1  9  1  0  0  0  0
  2 10  1  0  0  0  0
  2  1  1  0  0  0  0
  3 20  1  0  0  0  0
  4  2  1  0  0  0  0
  4 13  1  0  0  0  0
  5  6  1  1  0  0  0
  5  3  1  0  0  0  0
  5  4  1  0  0  0  0
  6 17  1  0  0  0  0
  7  1  1  0  0  0  0
 11  2  1  0  0  0  0
 12  4  1  0  0  0  0
 15 19  1  0  0  0  0
 16  6  1  0  0  0  0
 18  3  2  0  0  0  0
 19 14  1  0  0  0  0
 20  8  1  0  0  0  0
 20  1  1  0  0  0  0
M  END
$$$$
end
 OpenBabel10282513463D

 21 20  0  0  0  0  0  0  0  0999 V2000
   -2.0607    1.0336   -1.0147 C   0  0  0  0  0  0  0  0  0  0  0  0
   -1.5643   -0.1765   -0.2138 C   0  0  0  0  0  0  0  0  0  0  0  0
   -0.1351    0.0832    0.3555 C   0  0  0  0  0  0  0  0  0  0  0  0
    0.1602    1.7329   -1.4934 C   0  0  0  0  0  0  0  0  0  0  0  0
    0.4128   -1.1736    1.0478 C   0  0  0  0  0  0  0  0  0  0  0  0
    0.7955    0.5377   -0.7838 C   0  0  0  0  0  0  0  0  0  0  0  0
   -3.0211    0.8178   -1.5033 H   0  0  0  0  0  0  0  0  0  0  0  0
   -2.2246   -0.3667    0.6359 H   0  0  0  0  0  0  0  0  0  0  0  0
   -2.2012    1.8697   -0.3186 H   0  0  0  0  0  0  0  0  0  0  0  0
   -1.5101   -2.2369   -0.4079 H   0  0  0  0  0 15  0  0  0  0  0  0
   -1.4951   -1.0753   -0.8850 H   0  0  0  0  0  0  0  0  0  0  0  0
   -0.2572   -1.4532    1.8720 H   0  0  0  0  0  0  0  0  0  0  0  0
    0.0715    2.5818   -0.8111 H   0  0  0  0  0  0  0  0  0  0  0  0
    0.5010   -2.0228    0.3621 H   0  0  0  0  0  0  0  0  0  0  0  0
    0.5736    1.4082    1.6451 H   0  0  0  0  0  0  0  0  0  0  0  0
    0.7865    2.0360   -2.3498 H   0  0  0  0  0  0  0  0  0  0  0  0
    0.9226   -0.2942   -1.4837 H   0  0  0  0  0  0  0  0  0  0  0  0
    1.4045   -0.9709    1.4583 H   0  0  0  0  0  0  0  0  0  0  0  0
    1.7777    0.7890   -0.3583 H   0  0  0  0  0  0  0  0  0  0  0  0
   -1.1226    1.4238   -1.9926 O   0  0  0  0  0  0  0  0  0  0  0  0
   -0.2896    1.1453    1.3056 O   0  0  0  0  0  0  0  0  0  0  0  0
  1  9  1  0  0  0  0
  1  2  1  0  0  0  0
  2  3  1  0  0  0  0
  2  8  1  0  0  0  0
  3  5  1  0  0  0  0
  3 21  1  0  0  0  0
  4 13  1  0  0  0  0
  4  6  1  0  0  0  0
  5 18  1  0  0  0  0
  5 12  1  0  0  0  0
  6 19  1  0  0  0  0
  6  3  1  0  0  0  0
  7  1  1  0  0  0  0
 11  2  1  0  0  0  0
 14  5  1  0  0  0  0
 16  4  1  0  0  0  0
 17  6  1  0  0  0  0
 20  4  1  0  0  0  0
 20  1  1  0  0  0  0
 21 15  1  0  0  0  0
M  END
$$$$
end
 OpenBabel10282513463D

 19 19  0  0  1  0  0  0  0  0999 V2000
   -2.6301    0.9078   -0.7118 C   0  0  0  0  0  0  0  0  0  0  0  0
   -1.1699    0.5730   -0.8869 C   0  0  2  0  0  3  0  0  0  0  0  0
   -0.4413    0.6099   -2.0679 C   0  0  0  0  0  0  0  0  0  0  0  0
    0.8729   -0.1036   -0.4630 C   0  0  1  0  0  0  0  0  0  0  0  0
    1.8652    0.1678    1.8235 C   0  0  0  0  0  0  0  0  0  0  0  0
    1.9346    0.6022    0.3758 C   0  0  0  0  0  0  0  0  0  0  0  0
   -3.2340    0.0073   -0.5758 H   0  0  0  0  0  0  0  0  0  0  0  0
   -2.9968    1.4290   -1.5962 H   0  0  0  0  0  0  0  0  0  0  0  0
   -2.7778    1.5508    0.1713 H   0  0  0  0  0  0  0  0  0  0  0  0
   -0.7456    0.8613   -3.0581 H   0  0  0  0  0  0  0  0  0  0  0  0
   -0.0688    0.3763    2.0012 H   0  0  0  0  0  0  0  0  0  0  0  0
    1.0655   -1.1976   -0.3479 H   0  0  0  0  0  0  0  0  0  0  0  0
    1.8552    1.6963    0.3082 H   0  0  0  0  0  0  0  0  0  0  0  0
    1.9936   -0.9101    1.8953 H   0  0  0  0  0  0  0  0  0  0  0  0
    2.8884    0.3675   -0.0928 H   0  0  0  0  0  0  0  0  0  0  0  0
    2.6639    0.5791    2.3982 H   0  0  0  0  0  0  0  0  0  0  0  0
   -0.4532    0.1493    0.1254 O   0  0  0  0  0  0  0  0  0  0  0  0
    0.7169    0.6196    2.5035 O   0  0  0  0  0  0  0  0  0  0  0  0
    0.8035    0.2287   -1.8252 N   0  0  0  0  0  0  0  0  0  0  0  0
  1  7  1  0  0  0  0
  1  9  1  0  0  0  0
  2  1  1  6  0  0  0
  2 17  1  0  0  0  0
  3 19  2  0  0  0  0
  3  2  1  0  0  0  0
  4 12  1  1  0  0  0
  4 17  1  0  0  0  0
  4  6  1  0  0  0  0
  5 14  1  0  0  0  0
  5 16  1  0  0  0  0
  5 18  1  0  0  0  0
  6  5  1  0  0  0  0
  8  1  1  0  0  0  0
 10  3  1  0  0  0  0
 11 18  1  0  0  0  0
 13  6  1  0  0  0  0
 15  6  1  0  0  0  0
 19  4  1  0  0  0  0
M  END
$$$$
end
 OpenBabel10282513463D

 14 15  0  0  1  0  0  0  0  0999 V2000
   -0.6308    0.8878    0.4125 C   0  0  0  0  0  0  0  0  0  0  0  0
   -0.0755   -1.1591   -2.0105 C   0  0  0  0  0  0  0  0  0  0  0  0
    0.5898   -1.4523   -0.3221 C   0  0  0  0  0  0  0  0  0  0  0  0
    0.4676   -0.0678    0.0177 C   0  0  2  0  0  3  0  0  0  0  0  0
    1.3814    0.8771    0.6905 C   0  0  0  0  0  0  0  0  0  0  0  0
   -1.4438    0.3675    1.1865 H   0  0  0  0  0  0  0  0  0  0  0  0
   -1.2980    1.2856   -0.3274 H   0  0  0  0  0  0  0  0  0  0  0  0
   -0.7532   -0.4425   -2.5350 H   0  0  0  0  0  0  0  0  0  0  0  0
    0.3959   -1.8127   -2.7320 H   0  0  0  0  0  0  0  0  0  0  0  0
    1.2630   -2.1558    0.1034 H   0  0  0  0  0  0  0  0  0  0  0  0
    2.4224    0.8800    0.8343 H   0  0  0  0  0  0  0  0  0  0  0  0
   -0.5937   -1.8818   -0.9046 O   0  0  0  0  0  0  0  0  0  0  0  0
    0.9702   -0.5206   -1.3042 O   0  0  0  0  0  0  0  0  0  0  0  0
    0.3956    1.7490    0.9835 N   0  0  0  0  0  0  0  0  0  0  0  0
  1 14  1  0  0  0  0
  1  6  1  0  0  0  0
  2 13  1  0  0  0  0
  2 12  1  0  0  0  0
  3 10  1  0  0  0  0
  4  3  1  1  0  0  0
  4  1  1  0  0  0  0
  4  5  1  0  0  0  0
  5 11  1  0  0  0  0
  5 14  2  0  0  0  0
  7  1  1  0  0  0  0
  8  2  1  0  0  0  0
  9  2  1  0  0  0  0
 12  3  1  0  0  0  0
 13  3  1  0  0  0  0
M  END
$$$$
end
 OpenBabel10282513463D

 22 22  0  0  1  0  0  0  0  0999 V2000
   -1.7366    1.8827    0.0962 C   0  0  0  0  0  0  0  0  0  0  0  0
   -1.2902   -0.1724   -1.1414 C   0  0  0  0  0  3  0  0  0  0  0  0
   -0.2277   -1.2802   -1.0169 C   0  0  2  0  0  0  0  0  0  0  0  0
    0.0940   -1.6951    0.4093 C   0  0  1  0  0  0  0  0  0  0  0  0
    0.4656    0.8266   -0.0334 C   0  0  1  0  0  0  0  0  0  0  0  0
    0.9103   -0.6132   -0.2742 C   0  0  2  0  0  0  0  0  0  0  0  0
    1.0446    1.8331   -1.0785 C   0  0  0  0  0  0  0  0  0  0  0  0
   -2.7348    1.5159    0.3776 H   0  0  0  0  0  0  0  0  0  0  0  0
   -2.3148   -0.4811   -0.9925 H   0  0  0  0  0  0  0  0  0  0  0  0
   -1.7200    2.4826   -0.8219 H   0  0  0  0  0  0  0  0  0  0  0  0
   -1.5157   -1.9617    1.5025 H   0  0  0  0  0  0  0  0  0  0  0  0
   -1.3678    2.4541    0.9268 H   0  0  0  0  0  0  0  0  0  0  0  0
   -1.2118    0.3400   -2.1126 H   0  0  0  0  0  0  0  0  0  0  0  0
   -0.1075   -1.9761   -1.8115 H   0  0  0  0  0  0  0  0  0  0  0  0
    0.5806   -2.6364    0.5133 H   0  0  0  0  0  0  0  0  0  0  0  0
    0.7658    1.1561    0.9666 H   0  0  0  0  0  0  0  0  0  0  0  0
    0.7666    1.5269   -2.0942 H   0  0  0  0  0  0  0  0  0  0  0  0
    0.6764    2.8631   -0.8786 H   0  0  0  0  0  0  0  0  0  0  0  0
    1.9649   -0.8077   -0.5070 H   0  0  0  0  0  0  0  0  0  0  0  0
    2.1345    1.8268   -1.0156 H   0  0  0  0  0  0  0  0  0  0  0  0
   -0.9394    0.7494   -0.0951 O   0  0  0  0  0  0  0  0  0  0  0  0
   -0.7083   -1.3388    1.5023 O   0  0  0  0  0  0  0  0  0  0  0  0
  1  8  1  0  0  0  0
  1 12  1  0  0  0  0
  2  3  1  0  0  0  0
  2  9  1  0  0  0  0
  3 14  1  6  0  0  0
  3  6  1  0  0  0  0
  3  4  1  0  0  0  0
  4 15  1  1  0  0  0
  4 22  1  0  0  0  0
  5 16  1  1  0  0  0
  6 19  1  6  0  0  0
  6  5  1  0  0  0  0
  6  4  1  0  0  0  0
  7 20  1  0  0  0  0
  7 18  1  0  0  0  0
  7  5  1  0  0  0  0
 10  1  1  0  0  0  0
 13  2  1  0  0  0  0
 17  7  1  0  0  0  0
 21  5  1  0  0  0  0
 21  1  1  0  0  0  0
 22 11  1  0  0  0  0
M  END
$$$$
end
 OpenBabel10282513463D

 23 24  0  0  1  0  0  0  0  0999 V2000
   -2.2220   -0.8040    0.9216 C   0  0  0  0  0  0  0  0  0  0  0  0
   -0.8213   -0.1820    0.8893 C   0  0  2  0  0  0  0  0  0  0  0  0
   -0.2293   -0.0864   -0.5420 C   0  0  0  0  0  0  0  0  0  0  0  0
    0.1349   -1.0225    1.7548 C   0  0  0  0  0  0  0  0  0  0  0  0
    1.0813    0.7025   -0.5581 C   0  0  2  0  0  0  0  0  0  0  0  0
    1.5855   -0.6010    1.6433 C   0  0  2  0  0  0  0  0  0  0  0  0
    1.8543    0.5913   -1.8963 C   0  0  0  0  0  0  0  0  0  0  0  0
    2.0167    0.3020    0.5696 C   0  0  1  0  0  0  0  0  0  0  0  0
   -2.9293   -0.1828    0.3842 H   0  0  0  0  0  0  0  0  0  0  0  0
   -2.5636   -0.8894    1.9697 H   0  0  0  0  0  0  0  0  0  0  0  0
   -2.2133   -1.7756    0.4444 H   0  0  0  0  0  0  0  0  0  0  0  0
   -0.9612    0.4036   -1.2185 H   0  0  0  0  0  0  0  0  0  0  0  0
   -0.8754    0.8392    1.2888 H   0  0  0  0  0  0  0  0  0  0  0  0
   -0.1468   -0.9409    2.7917 H   0  0  0  0  0  0  0  0  0  0  0  0
    0.0829   -2.0753    1.4865 H   0  0  0  0  0  0  0  0  0  0  0  0
   -0.0389   -1.0919   -0.9370 H   0  0  0  0  0  0  0  0  0  0  0  0
    0.8605    1.7609   -0.3878 H   0  0  0  0  0  0  0  0  0  0  0  0
    1.2057    0.9115   -2.7243 H   0  0  0  0  0  0  0  0  0  0  0  0
    2.1350   -0.4608   -2.0825 H   0  0  0  0  0  0  0  0  0  0  0  0
    2.1313   -0.5755    2.5906 H   0  0  0  0  0  0  0  0  0  0  0  0
    2.8465    0.9700    0.7658 H   0  0  0  0  0  0  0  0  0  0  0  0
    2.7565    1.1895   -1.8987 H   0  0  0  0  0  0  0  0  0  0  0  0
    2.3891   -1.0848    0.5546 O   0  0  0  0  0  0  0  0  0  0  0  0
  1 10  1  0  0  0  0
  2  1  1  0  0  0  0
  2 13  1  1  0  0  0
  2  4  1  0  0  0  0
  3  2  1  0  0  0  0
  4 14  1  0  0  0  0
  5  3  1  0  0  0  0
  5 17  1  1  0  0  0
  5  8  1  0  0  0  0
  6  4  1  0  0  0  0
  6 20  1  1  0  0  0
  7  5  1  0  0  0  0
  8 21  1  1  0  0  0
  8  6  1  0  0  0  0
  9  1  1  0  0  0  0
 11  1  1  0  0  0  0
 12  3  1  0  0  0  0
 15  4  1  0  0  0  0
 16  3  1  0  0  0  0
 18  7  1  0  0  0  0
 19  7  1  0  0  0  0
 22  7  1  0  0  0  0
 23  8  1  0  0  0  0
 23  6  1  0  0  0  0
M  END
$$$$
end
 OpenBabel10282513463D

 14 14  0  0  1  0  0  0  0  0999 V2000
   -1.5699    1.8412    0.4744 C   0  0  0  0  0  0  0  0  0  0  0  0
   -0.7592   -0.0702    0.8555 C   0  0  2  0  0  3  0  0  0  0  0  0
    0.1873   -1.1191    1.2134 C   0  0  0  0  0  0  0  0  0  0  0  0
    1.6491   -0.8883    0.6649 C   0  0  0  0  0  0  0  0  0  0  0  0
    1.6620   -0.8453   -0.8273 C   0  0  0  0  0  0  0  0  0  0  0  0
   -1.4832    2.9478    0.3761 H   0  0  0  0  0  0  0  0  0  0  0  0
   -0.1746   -2.0885    0.8421 H   0  0  0  0  0  0  0  0  0  0  0  0
    0.2328   -1.1841    2.3085 H   0  0  0  0  0  0  0  0  0  0  0  0
    2.0506    0.0135    1.1101 H   0  0  0  0  0  0  0  0  0  0  0  0
    2.2746   -1.7225    0.9944 H   0  0  0  0  0  0  0  0  0  0  0  0
   -2.0318   -0.2202    0.6695 O   0  0  0  0  0  0  0  0  0  0  0  0
   -0.3821    1.1726    0.6541 O   0  0  0  0  0  0  0  0  0  0  0  0
   -2.5684    1.1074    0.4799 N   0  0  0  0  0  0  0  0  0  0  0  0
    1.6687   -0.8032   -1.9715 N   0  0  0  0  0  0  0  0  0  0  0  0
  1 13  2  0  0  0  0
  1 12  1  0  0  0  0
  2  3  1  6  0  0  0
  3  8  1  0  0  0  0
  4 10  1  0  0  0  0
  4  9  1  0  0  0  0
  4  3  1  0  0  0  0
  5  4  1  0  0  0  0
  6  1  1  0  0  0  0
  7  3  1  0  0  0  0
 11  2  1  0  0  0  0
 12  2  1  0  0  0  0
 13 11  1  0  0  0  0
 14  5  3  0  0  0  0
M  END
$$$$
end
 OpenBabel10282513463D

 14 14  0  0  0  0  0  0  0  0999 V2000
   -1.2347   -0.4956   -1.3788 C   0  0  0  0  0  0  0  0  0  0  0  0
   -1.1683   -0.3965    0.1451 C   0  0  0  0  0  0  0  0  0  0  0  0
   -0.1045    0.4358   -1.8434 C   0  0  0  0  0  0  0  0  0  0  0  0
    0.0837    0.1323    0.5449 C   0  0  0  0  0  0  0  0  0  0  0  0
    0.8172    0.6422   -0.6468 C   0  0  0  0  0  3  0  0  0  0  0  0
   -2.6791   -1.5765    0.7616 H   0  0  0  0  0  0  0  0  0  0  0  0
   -2.1893   -0.1150   -1.7524 H   0  0  0  0  0  0  0  0  0  0  0  0
   -1.9861   -0.5623    1.9241 H   0  0  0  0  0  0  0  0  0  0  0  0
   -1.0892   -1.5081   -1.7743 H   0  0  0  0  0  0  0  0  0  0  0  0
    0.6797   -0.5848    2.3118 H   0  0  0  0  0  0  0  0  0  0  0  0
    1.4323    1.5032   -0.5959 H   0  0  0  0  0  0  0  0  0  0  0  0
   -0.1144    1.0790   -2.8627 O   0  0  0  0  0  0  0  0  0  0  0  0
    0.3983    0.3043    1.8535 O   0  0  0  0  0  0  0  0  0  0  0  0
   -2.1879   -0.6990    0.9202 N   0  0  0  0  0  0  0  0  0  0  0  0
  1  2  1  0  0  0  0
  2  4  2  0  0  0  0
  2 14  1  0  0  0  0
  3  1  1  0  0  0  0
  3  5  1  0  0  0  0
  4 13  1  0  0  0  0
  5 11  1  0  0  0  0
  5  4  1  0  0  0  0
  6 14  1  0  0  0  0
  7  1  1  0  0  0  0
  9  1  1  0  0  0  0
 12  3  2  0  0  0  0
 13 10  1  0  0  0  0
 14  8  1  0  0  0  0
M  END
$$$$
end
 OpenBabel10282513463D

 14 15  0  0  1  0  0  0  0  0999 V2000
   -1.2844    1.2257   -0.0389 C   0  0  0  0  0  0  0  0  0  0  0  0
    0.0091    0.9769   -0.8640 C   0  0  0  0  0  0  0  0  0  0  0  0
    0.2317   -0.1997    0.1225 C   0  0  2  0  0  0  0  0  0  0  0  0
    0.7716   -1.5143   -0.3474 C   0  0  0  0  0  0  0  0  0  0  0  0
   -2.2153    1.4513   -0.5713 H   0  0  0  0  0  0  0  0  0  0  0  0
   -1.1010    1.9662    0.7882 H   0  0  0  0  0  0  0  0  0  0  0  0
   -0.2348    0.6493   -1.8765 H   0  0  0  0  0  0  0  0  0  0  0  0
    0.7870    0.1525    0.9675 H   0  0  0  0  0  0  0  0  0  0  0  0
    0.7773    1.7430   -0.9120 H   0  0  0  0  0  0  0  0  0  0  0  0
   -1.1726   -0.1414    0.4401 O   0  0  0  0  0  0  0  0  0  0  0  0
    0.1702   -2.2474   -1.2152 O   0  0  0  0  0  0  0  0  0  0  0  0
    0.9289   -3.5166   -1.2757 N   0  0  0  0  0  2  0  0  0  0  0  0
    2.0257   -3.2590   -0.6398 N   0  0  0  0  0  2  0  0  0  0  0  0
    1.9192   -2.0858    0.0032 N   0  0  0  0  0  0  0  0  0  0  0  0
  1 10  1  0  0  0  0
  1  6  1  0  0  0  0
  2  1  1  0  0  0  0
  2  3  1  0  0  0  0
  3 10  1  0  0  0  0
  3  8  1  1  0  0  0
  4 14  2  0  0  0  0
  4  3  1  0  0  0  0
  5  1  1  0  0  0  0
  7  2  1  0  0  0  0
  9  2  1  0  0  0  0
 11  4  1  0  0  0  0
 12 11  1  0  0  0  0
 12 13  1  0  0  0  0
 13 14  1  0  0  0  0
M  END
$$$$
end
 OpenBabel10282513463D

 22 22  0  0  1  0  0  0  0  0999 V2000
   -1.8154   -0.3630   -0.6107 C   0  0  0  0  0  0  0  0  0  0  0  0
   -1.5705    0.3925    0.7255 C   0  0  1  0  0  0  0  0  0  0  0  0
   -1.2347   -0.5145    1.9230 C   0  0  0  0  0  0  0  0  0  0  0  0
   -0.4234   -0.3495   -1.2566 C   0  0  0  0  0  0  0  0  0  0  0  0
   -0.0107   -1.3852    1.7395 C   0  0  0  0  0  0  0  0  0  0  0  0
    0.2026    0.8900   -0.6654 C   0  0  0  0  0  0  0  0  0  0  0  0
    1.8978    2.4892   -0.4816 C   0  0  0  0  0  0  0  0  0  0  0  0
   -2.5243    0.1815   -1.2468 H   0  0  0  0  0  0  0  0  0  0  0  0
   -2.4588    0.9601    0.9617 H   0  0  0  0  0  0  0  0  0  0  0  0
   -2.2237   -1.3447   -0.4453 H   0  0  0  0  0  0  0  0  0  0  0  0
   -2.1025   -1.0973    2.1744 H   0  0  0  0  0  0  0  0  0  0  0  0
   -1.0653    0.1813    2.7442 H   0  0  0  0  0  0  0  0  0  0  0  0
   -0.4204   -0.2664   -2.3596 H   0  0  0  0  0  0  0  0  0  0  0  0
   -0.1885   -2.1540    0.9927 H   0  0  0  0  0  0  0  0  0  0  0  0
    0.1523   -1.2359   -1.0223 H   0  0  0  0  0  0  0  0  0  0  0  0
    0.2285   -1.9013    2.6639 H   0  0  0  0  0  0  0  0  0  0  0  0
    0.8851   -0.8293    1.4098 H   0  0  0  0  0  0  0  0  0  0  0  0
    1.1399    3.1643   -0.0832 H   0  0  0  0  0  0  0  0  0  0  0  0
    2.5139    2.2002    0.3938 H   0  0  0  0  0  0  0  0  0  0  0  0
    2.5677    3.0575   -1.1366 H   0  0  0  0  0  0  0  0  0  0  0  0
   -0.5366    1.3403    0.4157 O   0  0  0  0  0  0  0  0  0  0  0  0
    1.2938    1.3870   -1.1292 N   0  0  0  0  0  0  0  0  0  0  0  0
  1 10  1  0  0  0  0
  1  2  1  0  0  0  0
  2  9  1  1  0  0  0
  2  3  1  0  0  0  0
  3 11  1  0  0  0  0
  3 12  1  0  0  0  0
  4 15  1  0  0  0  0
  4  6  1  0  0  0  0
  4  1  1  0  0  0  0
  5  3  1  0  0  0  0
  5 16  1  0  0  0  0
  6 21  1  0  0  0  0
  7 18  1  0  0  0  0
  7 19  1  0  0  0  0
  8  1  1  0  0  0  0
 13  4  1  0  0  0  0
 14  5  1  0  0  0  0
 17  5  1  0  0  0  0
 20  7  1  0  0  0  0
 21  2  1  0  0  0  0
 22  6  2  0  0  0  0
 22  7  1  0  0  0  0
M  END
$$$$
end
 OpenBabel10282513463D

 13 13  0  0  0  0  0  0  0  0999 V2000
   -0.6159    1.5242   -1.8866 C   0  0  0  0  0  0  0  0  0  0  0  0
   -0.0511    0.7133   -0.7379 C   0  0  0  0  0  0  0  0  0  0  0  0
    0.7506    1.2844    0.2020 C   0  0  0  0  0  0  0  0  0  0  0  0
    0.9165   -0.6759    1.2511 C   0  0  0  0  0  0  0  0  0  0  0  0
    1.2675   -1.3859    2.4179 C   0  0  0  0  0  0  0  0  0  0  0  0
   -1.6030    1.9139   -1.6203 H   0  0  0  0  0  0  0  0  0  0  0  0
   -0.7261    0.9055   -2.7759 H   0  0  0  0  0  0  0  0  0  0  0  0
    0.0304    2.3616   -2.1155 H   0  0  0  0  0  0  0  0  0  0  0  0
    0.9796    2.3709    0.1964 H   0  0  0  0  0  0  0  0  0  0  0  0
   -0.3081   -0.6089   -0.6866 N   0  0  0  0  0  0  0  0  0  0  0  0
    0.2092   -1.3315    0.3002 N   0  0  0  0  0  0  0  0  0  0  0  0
    1.2403    0.6107    1.2313 N   0  0  0  0  0  4  0  0  0  0  0  0
    1.5511   -1.9361    3.3871 N   0  0  0  0  0  0  0  0  0  0  0  0
  1  6  1  0  0  0  0
  1  2  1  0  0  0  0
  2 10  2  0  0  0  0
  2  3  1  0  0  0  0
  3 12  2  0  0  0  0
  4  5  1  0  0  0  0
  5 13  3  0  0  0  0
  7  1  1  0  0  0  0
  8  1  1  0  0  0  0
  9  3  1  0  0  0  0
 10 11  1  0  0  0  0
 11  4  2  0  0  0  0
 12  4  2  0  0  0  0
M  END
$$$$
end
 OpenBabel10282513463D

 15 15  0  0  0  0  0  0  0  0999 V2000
   -2.2545    0.8971   -0.4183 C   0  0  0  0  0  0  0  0  0  0  0  0
   -0.8177    0.5257   -0.5962 C   0  0  0  0  0  0  0  0  0  0  0  0
    0.0138    0.8909   -1.6223 C   0  0  0  0  0  0  0  0  0  0  0  0
    1.0637   -0.3882   -0.2979 C   0  0  0  0  0  0  0  0  0  0  0  0
    2.1613   -1.1362    0.3193 C   0  0  0  0  0  0  0  0  0  0  0  0
   -2.7547    0.1913    0.2424 H   0  0  0  0  0  0  0  0  0  0  0  0
   -2.7995    0.8711   -1.3878 H   0  0  0  0  0  0  0  0  0  0  0  0
   -2.3445    1.8964    0.0076 H   0  0  0  0  0  0  0  0  0  0  0  0
   -0.2012    1.5194   -2.4888 H   0  0  0  0  0  0  0  0  0  0  0  0
    1.3713   -1.1876    2.2822 H   0  0  0  0  0  0  0  0  0  0  0  0
    2.5902   -2.2977    1.9352 H   0  0  0  0  0  0  0  0  0  0  0  0
    3.2180   -1.2917   -0.2050 O   0  0  0  0  0  0  0  0  0  0  0  0
   -0.1382   -0.2884    0.2582 N   0  0  0  0  0  4  0  0  0  0  0  0
    1.1944    0.2863   -1.4637 N   0  0  0  0  0  4  0  0  0  0  0  0
    1.7522   -1.8030    1.5633 N   0  0  0  0  0  0  0  0  0  0  0  0
  1  8  1  0  0  0  0
  1  6  1  0  0  0  0
  2  1  1  0  0  0  0
  2 13  2  0  0  0  0
  3 14  2  0  0  0  0
  3  2  1  0  0  0  0
  4 13  2  0  0  0  0
  4  5  1  0  0  0  0
  5 15  1  0  0  0  0
  7  1  1  0  0  0  0
  9  3  1  0  0  0  0
 12  5  2  0  0  0  0
 14  4  2  0  0  0  0
 15 11  1  0  0  0  0
 15 10  1  0  0  0  0
M  END
$$$$
end
 OpenBabel10282513463D

 13 13  0  0  0  0  0  0  0  0999 V2000
   -1.1315   -0.5758   -0.0109 C   0  0  0  0  0  0  0  0  0  0  0  0
   -1.0776    1.8833   -0.7644 C   0  0  0  0  0  0  0  0  0  0  0  0
   -0.4223    0.6507   -0.2330 C   0  0  0  0  0  0  0  0  0  0  0  0
    0.8990    0.4772    0.1226 C   0  0  0  0  0  0  0  0  0  0  0  0
    1.0898   -0.8904    0.6140 C   0  0  0  0  0  0  0  0  0  0  0  0
   -2.0961    2.0035   -0.4055 H   0  0  0  0  0  0  0  0  0  0  0  0
   -1.1351    1.8519   -1.8819 H   0  0  0  0  0  0  0  0  0  0  0  0
   -0.3616   -2.4450    0.6427 H   0  0  0  0  0  0  0  0  0  0  0  0
   -0.4893    2.7778   -0.5584 H   0  0  0  0  0  0  0  0  0  0  0  0
    1.6935    1.1728    0.0843 H   0  0  0  0  0  0  0  0  0  0  0  0
   -2.3311   -0.8489   -0.2276 O   0  0  0  0  0  0  0  0  0  0  0  0
    2.0877   -1.4654    1.0048 O   0  0  0  0  0  0  0  0  0  0  0  0
   -0.1652   -1.4831    0.4328 N   0  0  0  0  0  0  0  0  0  0  0  0
  1 13  1  0  0  0  0
  2  9  1  0  0  0  0
  2  6  1  0  0  0  0
  2  3  1  0  0  0  0
  3  1  1  0  0  0  0
  3  4  2  0  0  0  0
  4  5  1  0  0  0  0
  5 12  2  0  0  0  0
  7  2  1  0  0  0  0
 10  4  1  0  0  0  0
 11  1  2  0  0  0  0
 13  5  1  0  0  0  0
 13  8  1  0  0  0  0
M  END
$$$$
end
 OpenBabel10282513463D

 17 18  0  0  1  0  0  0  0  0999 V2000
   -1.4944   -0.8424   -0.2601 C   0  0  2  0  0  0  0  0  0  0  0  0
   -1.0640   -0.8515    1.2695 C   0  0  0  0  0  0  0  0  0  0  0  0
   -0.7817    1.0520   -1.1445 C   0  0  0  0  0  0  0  0  0  0  0  0
   -0.0373   -1.1043   -0.6864 C   0  0  2  0  0  0  0  0  0  0  0  0
    0.3563   -1.3490    0.8011 C   0  0  0  0  0  0  0  0  0  0  0  0
    0.3283    0.2875   -1.1392 C   0  0  0  0  0  0  0  0  0  0  0  0
    1.6493    0.6539   -1.5202 C   0  0  0  0  0  0  0  0  0  0  0  0
   -2.2155   -1.5914   -0.5369 H   0  0  0  0  0  0  0  0  0  0  0  0
   -1.6403   -1.5269    1.9057 H   0  0  0  0  0  0  0  0  0  0  0  0
   -1.0907    0.1410    1.6743 H   0  0  0  0  0  0  0  0  0  0  0  0
   -0.9204    2.0200   -1.5350 H   0  0  0  0  0  0  0  0  0  0  0  0
    0.1734   -1.8891   -1.3789 H   0  0  0  0  0  0  0  0  0  0  0  0
    0.5312   -2.3883    1.0241 H   0  0  0  0  0  0  0  0  0  0  0  0
    1.1739   -0.7520    1.2144 H   0  0  0  0  0  0  0  0  0  0  0  0
    2.4181   -0.1324   -1.4743 H   0  0  0  0  0  0  0  0  0  0  0  0
   -1.8850    0.4330   -0.7370 O   0  0  0  0  0  0  0  0  0  0  0  0
    1.9807    1.7754   -1.8689 O   0  0  0  0  0  0  0  0  0  0  0  0
  1  8  1  6  0  0  0
  1  2  1  0  0  0  0
  2 10  1  0  0  0  0
  2  9  1  0  0  0  0
  3  6  2  0  0  0  0
  3 16  1  0  0  0  0
  4 12  1  6  0  0  0
  4  1  1  0  0  0  0
  4  5  1  0  0  0  0
  5 13  1  0  0  0  0
  5 14  1  0  0  0  0
  5  2  1  0  0  0  0
  6  4  1  0  0  0  0
  7 15  1  0  0  0  0
  7  6  1  0  0  0  0
 11  3  1  0  0  0  0
 16  1  1  0  0  0  0
 17  7  2  0  0  0  0
M  END
$$$$
end
 OpenBabel10282513463D

 19 21  0  0  1  0  0  0  0  0999 V2000
   -1.5403    0.4074   -1.1965 C   0  0  0  0  0  0  0  0  0  0  0  0
   -1.0371   -0.5921   -1.9717 C   0  0  0  0  0  0  0  0  0  0  0  0
   -0.5426    0.7139   -0.1243 C   0  0  2  0  0  0  0  0  0  0  0  0
    0.3416   -0.9415   -1.5163 C   0  0  2  0  0  0  0  0  0  0  0  0
    0.5090   -0.3966   -0.0949 C   0  0  2  0  0  0  0  0  0  0  0  0
    1.1509   -0.9957    1.0859 C   0  0  0  0  0  0  0  0  0  0  0  0
    1.1964    0.2976   -1.2441 C   0  0  2  0  0  0  0  0  0  0  0  0
   -2.3968    1.0084   -1.3700 H   0  0  0  0  0  0  0  0  0  0  0  0
   -1.5172   -1.0276   -2.8174 H   0  0  0  0  0  0  0  0  0  0  0  0
   -1.5187    2.1385    0.9117 H   0  0  0  0  0  0  0  0  0  0  0  0
   -0.2052    1.5585    1.6905 H   0  0  0  0  0  0  0  0  0  0  0  0
    0.2393    2.2499   -1.3919 H   0  0  0  0  0  0  0  0  0  0  0  0
    0.4336   -1.6515    1.5833 H   0  0  0  0  0  0  0  0  0  0  0  0
    0.8341   -1.8421   -1.7812 H   0  0  0  0  0  0  0  0  0  0  0  0
    1.4869   -0.1963    1.7308 H   0  0  0  0  0  0  0  0  0  0  0  0
    2.0044   -1.5812    0.7658 H   0  0  0  0  0  0  0  0  0  0  0  0
    2.2294    0.2861   -1.4994 H   0  0  0  0  0  0  0  0  0  0  0  0
   -1.0271    1.2907    1.1391 N   0  0  0  0  0  0  0  0  0  0  0  0
    0.4986    1.4376   -0.8669 N   0  0  0  0  0  0  0  0  0  0  0  0
  1  3  1  0  0  0  0
  2  4  1  0  0  0  0
  2  1  2  0  0  0  0
  3  5  1  0  0  0  0
  3 18  1  1  0  0  0
  4 14  1  6  0  0  0
  4  7  1  0  0  0  0
  4  5  1  0  0  0  0
  5  6  1  1  0  0  0
  6 13  1  0  0  0  0
  6 15  1  0  0  0  0
  7 17  1  6  0  0  0
  7 19  1  0  0  0  0
  7  5  1  0  0  0  0
  8  1  1  0  0  0  0
  9  2  1  0  0  0  0
 10 18  1  0  0  0  0
 12 19  1  0  0  0  0
 16  6  1  0  0  0  0
 18 11  1  0  0  0  0
 19  3  1  0  0  0  0
M  END
$$$$
end
 OpenBabel10282513463D

  9  7  0  0  0  0  0  0  0  0999 V2000
   -1.3787   -0.4707   -0.2233 C   0  0  0  0  0  1  0  0  0  0  0  0
    0.9407    0.2009   -0.8493 C   0  0  0  0  0  2  0  0  0  0  0  0
    1.6374    0.5829    1.1888 C   0  0  0  0  0  0  0  0  0  0  0  0
    1.0243    0.1206   -1.9067 H   0  0  0  0  0  0  0  0  0  0  0  0
    2.2783    0.8683    1.9889 H   0  0  0  0  0  0  0  0  0  0  0  0
    2.8799    0.9795   -0.4705 H   0  0  0  0  0  0  0  0  0  0  0  0
    0.4245    0.1221    1.3381 N   0  0  0  0  0  2  0  0  0  0  0  0
    1.9999    0.6714   -0.1224 N   0  0  0  0  0  0  0  0  0  0  0  0
   -1.7395   -0.2809   -1.5040 F   0  0  0  0  0  0  0  0  0  0  0  0
  2  8  1  0  0  0  0
  3  7  2  0  0  0  0
  3  5  1  0  0  0  0
  4  2  1  0  0  0  0
  6  8  1  0  0  0  0
  8  3  1  0  0  0  0
  9  1  1  0  0  0  0
M  END
$$$$
end
 OpenBabel10282513463D

 17 18  0  0  1  0  0  0  0  0999 V2000
   -2.2605   -0.3211   -0.5800 C   0  0  0  0  0  0  0  0  0  0  0  0
   -0.7825   -0.6639   -0.3353 C   0  0  1  0  0  0  0  0  0  0  0  0
   -0.6288    0.7830    0.1654 C   0  0  1  0  0  0  0  0  0  0  0  0
   -0.4424   -1.7818    0.6619 C   0  0  0  0  0  0  0  0  0  0  0  0
    0.4163    1.3784   -0.8069 C   0  0  0  0  0  0  0  0  0  0  0  0
    1.0078    0.1143   -1.4638 C   0  0  0  0  0  0  0  0  0  0  0  0
   -2.9766   -0.8511    0.0343 H   0  0  0  0  0  0  0  0  0  0  0  0
   -2.5430   -0.3277   -1.6316 H   0  0  0  0  0  0  0  0  0  0  0  0
   -0.8461   -2.7045    0.3040 H   0  0  0  0  0  0  0  0  0  0  0  0
   -0.8664   -1.5792    1.6418 H   0  0  0  0  0  0  0  0  0  0  0  0
   -0.3883    0.9913    1.2104 H   0  0  0  0  0  0  0  0  0  0  0  0
    0.6446   -1.8594    0.7783 H   0  0  0  0  0  0  0  0  0  0  0  0
    1.4056    0.3035   -2.4468 H   0  0  0  0  0  0  0  0  0  0  0  0
    1.7926   -0.3607   -0.7902 H   0  0  0  0  0  0  0  0  0  0  0  0
   -2.0054    1.0596   -0.1139 O   0  0  0  0  0  0  0  0  0  0  0  0
   -0.0627   -0.7620   -1.5642 O   0  0  0  0  0  0  0  0  0  0  0  0
    0.6781    2.5129   -0.9326 O   0  0  0  0  0  0  0  0  0  0  0  0
  1  2  1  0  0  0  0
  1 15  1  0  0  0  0
  1  7  1  0  0  0  0
  2  3  1  0  0  0  0
  2  4  1  1  0  0  0
  3 11  1  1  0  0  0
  4 12  1  0  0  0  0
  4 10  1  0  0  0  0
  5  3  1  0  0  0  0
  6  5  1  0  0  0  0
  6 14  1  0  0  0  0
  8  1  1  0  0  0  0
  9  4  1  0  0  0  0
 13  6  1  0  0  0  0
 15  3  1  0  0  0  0
 16  6  1  0  0  0  0
 16  2  1  0  0  0  0
 17  5  2  0  0  0  0
M  END
$$$$
end
 OpenBabel10282513463D

 16 16  0  0  1  0  0  0  0  0999 V2000
   -1.7324   -0.2863    1.0986 C   0  0  0  0  0  0  0  0  0  0  0  0
   -1.6062    0.5320   -0.2174 C   0  0  0  0  0  0  0  0  0  0  0  0
   -0.4497   -1.1126    1.2315 C   0  0  0  0  0  0  0  0  0  0  0  0
   -0.3410    0.0190   -0.8820 C   0  0  2  0  0  0  0  0  0  0  0  0
    0.5751   -0.3555    0.3345 C   0  0  2  0  0  0  0  0  0  0  0  0
    1.7920   -1.0913   -0.0259 C   0  0  0  0  0  0  0  0  0  0  0  0
   -2.4914    0.4340   -0.8416 H   0  0  0  0  0  0  0  0  0  0  0  0
   -1.4914    1.5919    0.0554 H   0  0  0  0  0  0  0  0  0  0  0  0
   -0.6030   -2.1199    0.8566 H   0  0  0  0  0  0  0  0  0  0  0  0
   -0.5229   -0.8990   -1.4399 H   0  0  0  0  0  0  0  0  0  0  0  0
   -0.1272   -1.1827    2.2511 H   0  0  0  0  0  0  0  0  0  0  0  0
    0.8786    0.5846    0.8221 H   0  0  0  0  0  0  0  0  0  0  0  0
    1.0478    1.0599   -1.6568 H   0  0  0  0  0  0  0  0  0  0  0  0
   -2.6354   -0.2388    1.8491 O   0  0  0  0  0  0  0  0  0  0  0  0
    0.1814    0.9793   -1.7334 O   0  0  0  0  0  0  0  0  0  0  0  0
    2.7593   -1.6524   -0.3282 N   0  0  0  0  0  0  0  0  0  0  0  0
  1  3  1  0  0  0  0
  1 14  2  0  0  0  0
  2  8  1  0  0  0  0
  2  1  1  0  0  0  0
  3 11  1  0  0  0  0
  4 10  1  6  0  0  0
  4  2  1  0  0  0  0
  4  5  1  0  0  0  0
  5 12  1  1  0  0  0
  5  3  1  0  0  0  0
  6  5  1  0  0  0  0
  7  2  1  0  0  0  0
  9  3  1  0  0  0  0
 15 13  1  0  0  0  0
 15  4  1  0  0  0  0
 16  6  3  0  0  0  0
M  END
$$$$
end
 OpenBabel10282513463D

 17 17  0  0  1  0  0  0  0  0999 V2000
   -0.3617   -0.5955    0.4246 C   0  0  0  0  0  0  0  0  0  0  0  0
   -0.4643   -0.3062    2.7690 C   0  0  0  0  0  0  0  0  0  0  0  0
   -0.4554    1.2063   -1.5776 C   0  0  1  0  0  0  0  0  0  0  0  0
   -0.0585   -0.1329   -2.1467 C   0  0  0  0  0  0  0  0  0  0  0  0
    0.2480    0.1279   -0.7062 C   0  0  2  0  0  0  0  0  0  0  0  0
    0.7574    2.1696   -1.4438 C   0  0  0  0  0  3  0  0  0  0  0  0
   -1.4629   -0.6003    0.4251 H   0  0  0  0  0  0  0  0  0  0  0  0
   -1.4306    1.5655   -1.4755 H   0  0  0  0  0  0  0  0  0  0  0  0
   -0.8839   -0.7843   -2.3675 H   0  0  0  0  0  0  0  0  0  0  0  0
   -0.0463   -1.6372    0.4575 H   0  0  0  0  0  0  0  0  0  0  0  0
    0.1044    0.1744    3.5875 H   0  0  0  0  0  0  0  0  0  0  0  0
    0.7701   -0.1858   -2.8462 H   0  0  0  0  0  0  0  0  0  0  0  0
    1.7343    1.5453   -1.2832 H   0  0  0  0  0  0  0  0  0  0  0  0
   -1.4447   -0.9260    2.9120 O   0  0  0  0  0  0  0  0  0  0  0  0
    0.1133    0.0985    1.5736 O   0  0  0  0  0  0  0  0  0  0  0  0
    0.8111    3.3496   -1.5371 O   0  0  0  0  0  0  0  0  0  0  0  0
    1.4411    0.8606   -0.4698 O   0  0  0  0  0  0  0  0  0  0  0  0
  1  7  1  0  0  0  0
  1 10  1  0  0  0  0
  1 15  1  0  0  0  0
  2 14  2  0  0  0  0
  2 11  1  0  0  0  0
  3  8  1  1  0  0  0
  3  6  1  0  0  0  0
  3  5  1  0  0  0  0
  4  3  1  0  0  0  0
  4  5  1  0  0  0  0
  5 17  1  1  0  0  0
  5  1  1  0  0  0  0
  9  4  1  0  0  0  0
 12  4  1  0  0  0  0
 13 17  1  0  0  0  0
 15  2  1  0  0  0  0
 16  6  2  0  0  0  0
M  END
$$$$
end
 OpenBabel10282513463D

 16 15  0  0  1  0  0  0  0  0999 V2000
   -2.3705   -0.1678   -1.2698 C   0  0  0  0  0  0  0  0  0  0  0  0
   -0.9673    0.4162   -1.3984 C   0  0  1  0  0  0  0  0  0  0  0  0
   -0.1970    0.4842   -0.0641 C   0  0  0  0  0  0  0  0  0  0  0  0
    0.8836   -1.0631    1.4011 C   0  0  0  0  0  0  0  0  0  0  0  0
    1.7466   -0.1174    2.0668 C   0  0  0  0  0  0  0  0  0  0  0  0
   -3.0193    0.4617   -0.6467 H   0  0  0  0  0  0  0  0  0  0  0  0
   -2.8340   -0.2733   -2.2614 H   0  0  0  0  0  0  0  0  0  0  0  0
   -2.3380   -1.1442   -0.8239 H   0  0  0  0  0  0  0  0  0  0  0  0
   -1.0558    1.4514   -1.7699 H   0  0  0  0  0  0  0  0  0  0  0  0
   -0.7853    1.0545    0.6597 H   0  0  0  0  0  0  0  0  0  0  0  0
   -0.4632   -0.2014   -3.1413 H   0  0  0  0  0  0  0  0  0  0  0  0
    0.7118    1.0277   -0.2049 H   0  0  0  0  0  0  0  0  0  0  0  0
    0.9431   -2.0659    1.7755 H   0  0  0  0  0  0  0  0  0  0  0  0
   -0.1219   -0.3392   -2.2343 O   0  0  0  0  0  0  0  0  0  0  0  0
    0.1045   -0.8383    0.4315 N   0  0  0  0  0  0  0  0  0  0  0  0
    2.4725    0.5730    2.6132 N   0  0  0  0  0  0  0  0  0  0  0  0
  1  8  1  0  0  0  0
  1  6  1  0  0  0  0
  2  9  1  6  0  0  0
  2  1  1  0  0  0  0
  2  3  1  0  0  0  0
  3 15  1  0  0  0  0
  3 10  1  0  0  0  0
  4 13  1  0  0  0  0
  4  5  1  0  0  0  0
  5 16  3  0  0  0  0
  7  1  1  0  0  0  0
 11 14  1  0  0  0  0
 12  3  1  0  0  0  0
 14  2  1  0  0  0  0
 15  4  2  0  0  0  0
M  END
$$$$
end
 OpenBabel10282513463D

 11 11  0  0  0  0  0  0  0  0999 V2000
   -0.5530    1.7699   -0.0942 C   0  0  0  0  0  0  0  0  0  0  0  0
    0.0982   -0.1596   -1.0425 C   0  0  0  0  0  0  0  0  0  0  0  0
    0.2565   -0.8535   -2.2698 C   0  0  0  0  0  0  0  0  0  0  0  0
    0.1838    0.0851    1.2140 C   0  0  0  0  0  0  0  0  0  0  0  0
   -0.8398    2.8045   -0.1851 H   0  0  0  0  0  0  0  0  0  0  0  0
    0.4060   -1.8541   -2.0836 H   0  0  0  0  0  0  0  0  0  0  0  0
    0.4097   -0.3462    2.1787 H   0  0  0  0  0  0  0  0  0  0  0  0
   -0.0833   -0.6141   -3.4010 O   0  0  0  0  0  0  0  0  0  0  0  0
   -0.4141    1.1042   -1.1920 N   0  0  0  0  0  4  0  0  0  0  0  0
   -0.2606    1.3169    1.1742 N   0  0  0  0  0  4  0  0  0  0  0  0
    0.3784   -0.7173    0.1419 N   0  0  0  0  0  4  0  0  0  0  0  0
  1 10  2  0  0  0  0
  2 11  2  0  0  0  0
  3  6  1  0  0  0  0
  3  2  1  0  0  0  0
  4  7  1  0  0  0  0
  5  1  1  0  0  0  0
  8  3  2  0  0  0  0
  9  2  2  0  0  0  0
  9  1  2  0  0  0  0
 10  4  2  0  0  0  0
 11  4  2  0  0  0  0
M  END
$$$$
end
 OpenBabel10282513463D

 21 23  0  0  1  0  0  0  0  0999 V2000
   -1.2314    1.1180    0.8896 C   0  0  1  0  0  0  0  0  0  0  0  0
   -0.8601   -0.3320    1.2571 C   0  0  0  0  0  0  0  0  0  0  0  0
   -0.6160    0.1256   -1.1695 C   0  0  2  0  0  0  0  0  0  0  0  0
   -0.3213    1.5692   -1.1810 C   0  0  1  0  0  0  0  0  0  0  0  0
    0.1521    1.4291    0.3326 C   0  0  2  0  0  0  0  0  0  0  0  0
    0.2291   -0.1500    0.1507 C   0  0  1  0  0  3  0  0  0  0  0  0
    1.4819   -1.0199   -0.1212 C   0  0  0  0  0  0  0  0  0  0  0  0
    2.6377   -0.8376    0.8683 C   0  0  0  0  0  0  0  0  0  0  0  0
   -2.0551    1.7662    1.0933 H   0  0  0  0  0  0  0  0  0  0  0  0
   -1.6257   -1.0981    1.1056 H   0  0  0  0  0  0  0  0  0  0  0  0
   -1.0760   -0.5181   -1.8359 H   0  0  0  0  0  0  0  0  0  0  0  0
   -0.9426    2.3572   -1.5344 H   0  0  0  0  0  0  0  0  0  0  0  0
   -0.4713   -0.3419    2.2608 H   0  0  0  0  0  0  0  0  0  0  0  0
    0.9078    2.0772    0.7652 H   0  0  0  0  0  0  0  0  0  0  0  0
    1.1752   -2.0664   -0.1749 H   0  0  0  0  0  0  0  0  0  0  0  0
    1.8743   -0.7706   -1.1139 H   0  0  0  0  0  0  0  0  0  0  0  0
    2.3410   -1.0676    1.8842 H   0  0  0  0  0  0  0  0  0  0  0  0
    3.0589    0.1639    0.8411 H   0  0  0  0  0  0  0  0  0  0  0  0
    3.4660   -1.5427    0.5907 H   0  0  0  0  0  0  0  0  0  0  0  0
   -1.6856    0.7432   -0.4738 O   0  0  0  0  0  0  0  0  0  0  0  0
    0.4338    0.8676   -2.0235 O   0  0  0  0  0  0  0  0  0  0  0  0
  1  9  1  1  0  0  0
  1  2  1  0  0  0  0
  2 13  1  0  0  0  0
  3 11  1  6  0  0  0
  3 20  1  0  0  0  0
  4 12  1  6  0  0  0
  4  3  1  0  0  0  0
  4  5  1  0  0  0  0
  5 14  1  1  0  0  0
  5  1  1  0  0  0  0
  6  7  1  1  0  0  0
  6  5  1  0  0  0  0
  6  2  1  0  0  0  0
  7  8  1  0  0  0  0
  8 17  1  0  0  0  0
 10  2  1  0  0  0  0
 15  7  1  0  0  0  0
 16  7  1  0  0  0  0
 18  8  1  0  0  0  0
 19  8  1  0  0  0  0
 20  1  1  0  0  0  0
 21  4  1  0  0  0  0
 21  3  1  0  0  0  0
M  END
$$$$
end
 OpenBabel10282513463D

 21 23  0  0  1  0  0  0  0  0999 V2000
   -0.8959   -0.7840   -0.4832 C   0  0  0  0  0  0  0  0  0  0  0  0
   -1.0383    0.6808   -1.0476 C   0  0  1  0  0  0  0  0  0  0  0  0
    0.1002    1.1034   -0.0943 C   0  0  1  0  0  0  0  0  0  0  0  0
    0.1274    2.2704    0.8380 C   0  0  0  0  0  0  0  0  0  0  0  0
    0.2781   -0.3516    0.4247 C   0  0  2  0  0  0  0  0  0  0  0  0
    0.3049    1.1658   -1.5889 C   0  0  0  0  0  0  0  0  0  0  0  0
    1.5944   -1.1116    0.5339 C   0  0  0  0  0  0  0  0  0  0  0  0
    1.4910   -0.9098    2.0719 C   0  0  0  0  0  0  0  0  0  0  0  0
   -1.9531    1.1767   -1.3605 H   0  0  0  0  0  0  0  0  0  0  0  0
   -1.7628   -1.0695    0.1224 H   0  0  0  0  0  0  0  0  0  0  0  0
   -0.6913   -1.5426   -1.2535 H   0  0  0  0  0  0  0  0  0  0  0  0
   -0.5084    2.0852    1.7055 H   0  0  0  0  0  0  0  0  0  0  0  0
   -0.2316    3.1808    0.3448 H   0  0  0  0  0  0  0  0  0  0  0  0
    0.2964    2.1464   -2.0618 H   0  0  0  0  0  0  0  0  0  0  0  0
    0.9541    0.4234   -2.0697 H   0  0  0  0  0  0  0  0  0  0  0  0
    1.1411    2.4277    1.1722 H   0  0  0  0  0  0  0  0  0  0  0  0
    1.4934   -2.1297    0.2348 H   0  0  0  0  0  0  0  0  0  0  0  0
    1.5616   -1.8154    2.7014 H   0  0  0  0  0  0  0  0  0  0  0  0
    2.1658   -0.1426    2.4403 H   0  0  0  0  0  0  0  0  0  0  0  0
    2.4626   -0.6876    0.0327 H   0  0  0  0  0  0  0  0  0  0  0  0
    0.1523   -0.4753    1.8625 O   0  0  0  0  0  0  0  0  0  0  0  0
  1 10  1  0  0  0  0
  1  5  1  0  0  0  0
  2  9  1  6  0  0  0
  2  1  1  0  0  0  0
  2  3  1  0  0  0  0
  3  5  1  0  0  0  0
  3  4  1  1  0  0  0
  4 16  1  0  0  0  0
  4 12  1  0  0  0  0
  5  7  1  0  0  0  0
  5 21  1  1  0  0  0
  6  2  1  0  0  0  0
  6  3  1  0  0  0  0
  7  8  1  0  0  0  0
  8 19  1  0  0  0  0
  8 18  1  0  0  0  0
 11  1  1  0  0  0  0
 13  4  1  0  0  0  0
 14  6  1  0  0  0  0
 15  6  1  0  0  0  0
 17  7  1  0  0  0  0
 20  7  1  0  0  0  0
 21  8  1  0  0  0  0
M  END
$$$$
end
 OpenBabel10282513463D

 24 24  0  0  1  0  0  0  0  0999 V2000
   -2.3918   -0.8951    0.3103 C   0  0  0  0  0  0  0  0  0  0  0  0
   -1.9745   -2.3349   -1.5802 C   0  0  0  0  0  0  0  0  0  0  0  0
   -0.8926   -0.8557    0.2750 C   0  0  2  0  0  0  0  0  0  0  0  0
   -0.2296    0.2280   -0.5689 C   0  0  0  0  0  0  0  0  0  0  0  0
    1.3096    0.1850   -0.4725 C   0  0  1  0  0  0  0  0  0  0  0  0
    1.9460    1.3171   -1.3032 C   0  0  0  0  0  0  0  0  0  0  0  0
    3.0217    0.0938    1.1620 C   0  0  0  0  0  0  0  0  0  0  0  0
   -3.1032   -2.3960   -1.5506 H   0  0  0  0  0  0  0  0  0  0  0  0
   -2.8470   -1.1281    1.2536 H   0  0  0  0  0  0  0  0  0  0  0  0
   -2.8732   -0.2099   -0.3500 H   0  0  0  0  0  0  0  0  0  0  0  0
   -1.7480   -3.3724   -1.8946 H   0  0  0  0  0  0  0  0  0  0  0  0
   -1.7296   -1.5925   -2.2856 H   0  0  0  0  0  0  0  0  0  0  0  0
   -0.6083    0.1616   -1.5825 H   0  0  0  0  0  0  0  0  0  0  0  0
   -0.4091   -1.0489    1.2058 H   0  0  0  0  0  0  0  0  0  0  0  0
   -0.5483    1.2412   -0.1713 H   0  0  0  0  0  0  0  0  0  0  0  0
    1.5974   -0.7780   -0.8965 H   0  0  0  0  0  0  0  0  0  0  0  0
    1.4816    1.3571   -2.2918 H   0  0  0  0  0  0  0  0  0  0  0  0
    1.7648    2.2825   -0.8104 H   0  0  0  0  0  0  0  0  0  0  0  0
    3.0396   -0.0142    2.2149 H   0  0  0  0  0  0  0  0  0  0  0  0
    3.0175    1.1618   -1.3746 H   0  0  0  0  0  0  0  0  0  0  0  0
    3.4180   -0.8105    0.6543 H   0  0  0  0  0  0  0  0  0  0  0  0
    3.6151    0.9645    0.7963 H   0  0  0  0  0  0  0  0  0  0  0  0
    1.6597    0.2464    0.9194 O   0  0  0  0  0  0  0  0  0  0  0  0
   -1.2934   -2.1087   -0.2998 N   0  0  0  0  0  0  0  0  0  0  0  0
  1  9  1  0  0  0  0
  2  8  1  0  0  0  0
  2 24  1  0  0  0  0
  3  1  1  0  0  0  0
  3 14  1  1  0  0  0
  4  5  1  0  0  0  0
  4 15  1  0  0  0  0
  4  3  1  0  0  0  0
  5 16  1  6  0  0  0
  5 23  1  0  0  0  0
  6 18  1  0  0  0  0
  6  5  1  0  0  0  0
  7 19  1  0  0  0  0
 10  1  1  0  0  0  0
 11  2  1  0  0  0  0
 12  2  1  0  0  0  0
 13  4  1  0  0  0  0
 17  6  1  0  0  0  0
 20  6  1  0  0  0  0
 21  7  1  0  0  0  0
 22  7  1  0  0  0  0
 23  7  1  0  0  0  0
 24  3  1  0  0  0  0
 24  1  1  0  0  0  0
M  END
$$$$
end
 OpenBabel10282513463D

 12 12  0  0  0  0  0  0  0  0999 V2000
   -0.8267    0.9269    0.1383 C   0  0  0  0  0  0  0  0  0  0  0  0
   -0.3015   -1.5557    0.0011 C   0  0  0  0  0  0  0  0  0  0  0  0
    0.0743   -0.1684    0.4178 C   0  0  0  0  0  0  0  0  0  0  0  0
    1.1135    1.5670    1.1076 C   0  0  0  0  0  0  0  0  0  0  0  0
   -1.0359   -1.9706    0.6772 H   0  0  0  0  0  0  0  0  0  0  0  0
   -0.7842   -1.5412   -0.9830 H   0  0  0  0  0  0  0  0  0  0  0  0
   -0.3741    2.9544    0.4400 H   0  0  0  0  0  0  0  0  0  0  0  0
    0.5550   -2.2065    0.0022 H   0  0  0  0  0  0  0  0  0  0  0  0
    1.8433    2.2039    1.5226 H   0  0  0  0  0  0  0  0  0  0  0  0
   -1.9246    0.9656   -0.3740 O   0  0  0  0  0  0  0  0  0  0  0  0
   -0.0463    2.0263    0.5479 N   0  0  0  0  0  0  0  0  0  0  0  0
    1.1945    0.2177    0.9755 N   0  0  0  0  0  4  0  0  0  0  0  0
  1  3  1  0  0  0  0
  1 11  1  0  0  0  0
  2  8  1  0  0  0  0
  2  3  1  0  0  0  0
  2  5  1  0  0  0  0
  3 12  2  0  0  0  0
  4  9  1  0  0  0  0
  6  2  1  0  0  0  0
  7 11  1  0  0  0  0
 10  1  2  0  0  0  0
 11  4  1  0  0  0  0
 12  4  2  0  0  0  0
M  END
$$$$
end
 OpenBabel10282513463D

 21 22  0  0  1  0  0  0  0  0999 V2000
   -1.8265   -0.0902   -0.4698 C   0  0  0  0  0  0  0  0  0  0  0  0
   -0.3681   -0.3348   -0.1036 C   0  0  2  0  0  0  0  0  0  0  0  0
   -0.0476   -1.5314    0.7676 C   0  0  0  0  0  0  0  0  0  0  0  0
    0.5331    0.1899   -2.5312 C   0  0  0  0  0  0  0  0  0  0  0  0
    0.5692    0.8595    0.0707 C   0  0  0  0  0  0  0  0  0  0  0  0
    0.7884   -0.1507   -1.0918 C   0  0  1  0  0  0  0  0  0  0  0  0
    1.4780   -1.7948    0.5747 C   0  0  0  0  0  0  0  0  0  0  0  0
    1.8883   -1.1708   -0.7896 C   0  0  0  0  0  0  0  0  0  0  0  0
   -2.4111    0.0194    0.4305 H   0  0  0  0  0  0  0  0  0  0  0  0
   -2.2196   -0.9130   -1.0573 H   0  0  0  0  0  0  0  0  0  0  0  0
   -1.9722    0.8325   -1.0828 H   0  0  0  0  0  0  0  0  0  0  0  0
   -0.5756   -2.4185    0.3902 H   0  0  0  0  0  0  0  0  0  0  0  0
   -0.2738   -1.3920    1.8132 H   0  0  0  0  0  0  0  0  0  0  0  0
   -0.2384    0.9675   -2.5910 H   0  0  0  0  0  0  0  0  0  0  0  0
    0.1642   -0.7137   -3.0732 H   0  0  0  0  0  0  0  0  0  0  0  0
    0.2417    1.8505   -0.2514 H   0  0  0  0  0  0  0  0  0  0  0  0
    1.2413    0.8317    0.9190 H   0  0  0  0  0  0  0  0  0  0  0  0
    1.4164    0.5407   -3.0311 H   0  0  0  0  0  0  0  0  0  0  0  0
    1.8986   -1.9772   -1.5319 H   0  0  0  0  0  0  0  0  0  0  0  0
    2.8939   -0.7370   -0.7621 H   0  0  0  0  0  0  0  0  0  0  0  0
    2.1947   -2.3966    1.3205 O   0  0  0  0  0  0  0  0  0  0  0  0
  1  9  1  0  0  0  0
  2  1  1  6  0  0  0
  2  5  1  0  0  0  0
  2  3  1  0  0  0  0
  3 13  1  0  0  0  0
  5 17  1  0  0  0  0
  6  4  1  6  0  0  0
  6  8  1  0  0  0  0
  6  2  1  0  0  0  0
  6  5  1  0  0  0  0
  7  3  1  0  0  0  0
  7 21  2  0  0  0  0
  8 20  1  0  0  0  0
  8  7  1  0  0  0  0
 10  1  1  0  0  0  0
 11  1  1  0  0  0  0
 12  3  1  0  0  0  0
 14  4  1  0  0  0  0
 15  4  1  0  0  0  0
 16  5  1  0  0  0  0
 18  4  1  0  0  0  0
 19  8  1  0  0  0  0
M  END
$$$$
end
 OpenBabel10282513463D

 18 17  0  0  1  0  0  0  0  0999 V2000
   -2.6110    0.0763    0.5019 C   0  0  0  0  0  0  0  0  0  0  0  0
   -1.8197    0.9149    1.3744 C   0  0  2  0  0  0  0  0  0  0  0  0
   -0.5084    0.2352    1.8704 C   0  0  0  0  0  0  0  0  0  0  0  0
    0.4793   -0.0148    0.7852 C   0  0  0  0  0  0  0  0  0  0  0  0
    1.2843   -0.1711   -0.0708 C   0  0  0  0  0  0  0  0  0  0  0  0
    1.9948   -1.5650   -2.0675 C   0  0  0  0  0  0  0  0  0  0  0  0
    2.3270   -0.3967   -1.1253 C   0  0  0  0  0  0  0  0  0  0  0  0
   -3.4154    1.6361    2.2736 H   0  0  0  0  0  0  0  0  0  0  0  0
   -1.4961    1.7831    0.7368 H   0  0  0  0  0  0  0  0  0  0  0  0
   -0.7714   -0.7346    2.3608 H   0  0  0  0  0  0  0  0  0  0  0  0
   -0.0914    0.8985    2.6419 H   0  0  0  0  0  0  0  0  0  0  0  0
    1.0585   -1.3550   -2.6048 H   0  0  0  0  0  0  0  0  0  0  0  0
    1.8706   -2.4823   -1.5241 H   0  0  0  0  0  0  0  0  0  0  0  0
    2.5026    0.5035   -1.6908 H   0  0  0  0  0  0  0  0  0  0  0  0
    2.7859   -1.6876   -2.8004 H   0  0  0  0  0  0  0  0  0  0  0  0
    3.2952   -0.6065   -0.6155 H   0  0  0  0  0  0  0  0  0  0  0  0
   -2.5028    1.3852    2.5389 O   0  0  0  0  0  0  0  0  0  0  0  0
   -3.2636   -0.5890   -0.1850 N   0  0  0  0  0  0  0  0  0  0  0  0
  1  2  1  0  0  0  0
  2  9  1  6  0  0  0
  2  3  1  0  0  0  0
  2 17  1  0  0  0  0
  3 10  1  0  0  0  0
  3 11  1  0  0  0  0
  4  3  1  0  0  0  0
  5  4  3  0  0  0  0
  6 13  1  0  0  0  0
  6  7  1  0  0  0  0
  7 16  1  0  0  0  0
  7  5  1  0  0  0  0
  8 17  1  0  0  0  0
 12  6  1  0  0  0  0
 14  7  1  0  0  0  0
 15  6  1  0  0  0  0
 18  1  3  0  0  0  0
M  END
$$$$
end
 OpenBabel10282513463D

 23 24  0  0  1  0  0  0  0  0999 V2000
   -1.8900    0.1787    1.0300 C   0  0  0  0  0  0  0  0  0  0  0  0
   -0.4140    0.0646    0.7487 C   0  0  2  0  0  0  0  0  0  0  0  0
   -0.2953    2.2570   -0.6521 C   0  0  0  0  0  0  0  0  0  0  0  0
    0.3457    0.9637   -0.1305 C   0  0  1  0  0  0  0  0  0  0  0  0
    0.4062   -1.2462    1.0488 C   0  0  1  0  0  0  0  0  0  0  0  0
    0.7573   -2.2186   -0.0871 C   0  0  0  0  0  0  0  0  0  0  0  0
    0.7400    3.3089   -1.0387 C   0  0  0  0  0  3  0  0  0  0  0  0
    1.5144   -0.3069    1.5785 C   0  0  0  0  0  0  0  0  0  0  0  0
   -2.4757   -0.2655    0.2110 H   0  0  0  0  0  0  0  0  0  0  0  0
   -2.1887   -0.3247    1.9620 H   0  0  0  0  0  0  0  0  0  0  0  0
   -2.1914    1.2276    1.1460 H   0  0  0  0  0  0  0  0  0  0  0  0
   -0.8918    2.0300   -1.5429 H   0  0  0  0  0  0  0  0  0  0  0  0
   -0.9572    2.6663    0.0965 H   0  0  0  0  0  0  0  0  0  0  0  0
   -0.1287   -2.6581   -0.5110 H   0  0  0  0  0  0  0  0  0  0  0  0
   -0.0842   -1.8151    1.8626 H   0  0  0  0  0  0  0  0  0  0  0  0
    1.1042    0.5592   -0.8013 H   0  0  0  0  0  0  0  0  0  0  0  0
    1.3967   -3.0228    0.3073 H   0  0  0  0  0  0  0  0  0  0  0  0
    1.3277   -1.7541   -0.8811 H   0  0  0  0  0  0  0  0  0  0  0  0
    1.3775    3.5352   -0.1465 H   0  0  0  0  0  0  0  0  0  0  0  0
    1.4245    2.9583   -1.8048 H   0  0  0  0  0  0  0  0  0  0  0  0
    1.7663   -0.3917    2.6229 H   0  0  0  0  0  0  0  0  0  0  0  0
    2.4304   -0.2579    0.9253 H   0  0  0  0  0  0  0  0  0  0  0  0
    0.6295    0.9347    1.3395 N   0  0  2  0  0  0  0  0  0  0  0  0
  1 11  1  0  0  0  0
  1 10  1  0  0  0  0
  2  1  1  1  0  0  0
  2  5  1  0  0  0  0
  2 23  1  0  0  0  0
  3  4  1  0  0  0  0
  3 13  1  0  0  0  0
  4 16  1  6  0  0  0
  4  2  1  0  0  0  0
  4 23  1  0  0  0  0
  5  8  1  0  0  0  0
  5 15  1  1  0  0  0
  6 17  1  0  0  0  0
  6  5  1  0  0  0  0
  7  3  1  0  0  0  0
  7 19  1  0  0  0  0
  8 21  1  0  0  0  0
  9  1  1  0  0  0  0
 12  3  1  0  0  0  0
 14  6  1  0  0  0  0
 18  6  1  0  0  0  0
 20  7  1  0  0  0  0
 22  8  1  0  0  0  0
 23  8  1  6  0  0  0
M  END
$$$$
end
 OpenBabel10282513463D

 22 21  0  0  1  0  0  0  0  0999 V2000
   -2.8591   -1.4587    0.9958 C   0  0  0  0  0  3  0  0  0  0  0  0
   -2.0887   -0.1902    0.8858 C   0  0  0  0  0  0  0  0  0  0  0  0
    0.1408    0.5858    0.5499 C   0  0  0  0  0  0  0  0  0  0  0  0
    1.1872   -2.4447   -0.1076 C   0  0  0  0  0  0  0  0  0  0  0  0
    1.5734    0.0149    0.6138 C   0  0  1  0  0  0  0  0  0  0  0  0
    1.7517   -1.0922   -0.4447 C   0  0  0  0  0  0  0  0  0  0  0  0
    2.5967    1.1343    0.4089 C   0  0  0  0  0  0  0  0  0  0  0  0
   -2.7018   -2.0915    0.1231 H   0  0  0  0  0  0  0  0  0  0  0  0
   -2.5085   -2.0222    1.8651 H   0  0  0  0  0  0  0  0  0  0  0  0
   -2.4399    0.4489    0.0647 H   0  0  0  0  0  0  0  0  0  0  0  0
   -2.1809    0.4203    1.8018 H   0  0  0  0  0  0  0  0  0  0  0  0
    0.0660   -2.4707   -0.0408 H   0  0  0  0  0  0  0  0  0  0  0  0
    0.0132    1.1349   -0.4120 H   0  0  0  0  0  0  0  0  0  0  0  0
   -0.0519    1.3266    1.2996 H   0  0  0  0  0  0  0  0  0  0  0  0
    1.3650   -0.7609   -1.4100 H   0  0  0  0  0  0  0  0  0  0  0  0
    1.6757   -0.4375    1.5883 H   0  0  0  0  0  0  0  0  0  0  0  0
    2.5043    1.5873   -0.5845 H   0  0  0  0  0  0  0  0  0  0  0  0
    2.4571    1.9096    1.1469 H   0  0  0  0  0  0  0  0  0  0  0  0
    2.8084   -1.2903   -0.6313 H   0  0  0  0  0  0  0  0  0  0  0  0
    3.6165    0.7396    0.4687 H   0  0  0  0  0  0  0  0  0  0  0  0
   -0.7855   -0.4792    0.6516 O   0  0  0  0  0  0  0  0  0  0  0  0
    1.8526   -3.4655   -0.0347 O   0  0  0  0  0  0  0  0  0  0  0  0
  1  9  1  0  0  0  0
  2  1  1  0  0  0  0
  2 11  1  0  0  0  0
  3  5  1  0  0  0  0
  3 21  1  0  0  0  0
  3 14  1  0  0  0  0
  4 12  1  0  0  0  0
  4 22  2  0  0  0  0
  5 16  1  1  0  0  0
  6  4  1  0  0  0  0
  6  5  1  0  0  0  0
  7 20  1  0  0  0  0
  7  5  1  0  0  0  0
  7 18  1  0  0  0  0
  8  1  1  0  0  0  0
 10  2  1  0  0  0  0
 13  3  1  0  0  0  0
 15  6  1  0  0  0  0
 17  7  1  0  0  0  0
 19  6  1  0  0  0  0
 21  2  1  0  0  0  0
M  END
$$$$
end
 OpenBabel10282513463D

 19 20  0  0  1  0  0  0  0  0999 V2000
   -1.1943    0.9317   -0.5889 C   0  0  0  0  0  0  0  0  0  0  0  0
   -0.6087   -1.5773   -0.0596 C   0  0  0  0  0  0  0  0  0  0  0  0
   -0.2219   -0.0933    0.0250 C   0  0  2  0  0  0  0  0  0  0  0  0
   -0.3438    1.9757    1.1999 C   0  0  0  0  0  0  0  0  0  0  0  0
    0.1729    0.5324    1.3733 C   0  0  0  0  0  0  0  0  0  0  0  0
    0.7895   -1.8104   -0.6393 C   0  0  0  0  0  0  0  0  0  0  0  0
   -2.2260    0.6903   -0.3175 H   0  0  0  0  0  0  0  0  0  0  0  0
   -1.3856   -1.7971   -0.7597 H   0  0  0  0  0  0  0  0  0  0  0  0
   -1.1294    0.9531   -1.7055 H   0  0  0  0  0  0  0  0  0  0  0  0
   -1.1387    2.1793    1.9178 H   0  0  0  0  0  0  0  0  0  0  0  0
   -0.8399   -2.0691    0.9052 H   0  0  0  0  0  0  0  0  0  0  0  0
   -0.2990    0.0274    2.2046 H   0  0  0  0  0  0  0  0  0  0  0  0
    0.4416    2.6996    1.3533 H   0  0  0  0  0  0  0  0  0  0  0  0
    0.9007   -2.3935   -1.5184 H   0  0  0  0  0  0  0  0  0  0  0  0
    1.0568    0.1102   -1.6348 H   0  0  0  0  0  0  0  0  0  0  0  0
    1.2515    0.4623    1.4945 H   0  0  0  0  0  0  0  0  0  0  0  0
    1.5456   -2.1496    0.0914 H   0  0  0  0  0  0  0  0  0  0  0  0
   -0.8470    2.1904   -0.0942 O   0  0  0  0  0  0  0  0  0  0  0  0
    0.9980   -0.3312   -0.7314 N   0  0  0  0  0  0  0  0  0  0  0  0
  1  7  1  0  0  0  0
  1 18  1  0  0  0  0
  1  3  1  0  0  0  0
  2  3  1  0  0  0  0
  2 11  1  0  0  0  0
  3 19  1  6  0  0  0
  3  5  1  0  0  0  0
  4 13  1  0  0  0  0
  4  5  1  0  0  0  0
  4 10  1  0  0  0  0
  5 16  1  0  0  0  0
  5 12  1  0  0  0  0
  6  2  1  0  0  0  0
  6 17  1  0  0  0  0
  8  2  1  0  0  0  0
  9  1  1  0  0  0  0
 14  6  1  0  0  0  0
 15 19  1  0  0  0  0
 18  4  1  0  0  0  0
 19  6  1  0  0  0  0
M  END
$$$$
end
 OpenBabel10282513463D

 16 17  0  0  1  0  0  0  0  0999 V2000
   -1.6454   -1.2330   -0.1694 C   0  0  0  0  0  0  0  0  0  0  0  0
   -0.5494    1.2200   -0.0701 C   0  0  0  0  0  3  0  0  0  0  0  0
   -0.3125   -0.5876   -0.3237 C   0  0  2  0  0  0  0  0  0  0  0  0
    0.1493    0.3561    0.8919 C   0  0  1  0  0  0  0  0  0  0  0  0
   -0.0723    0.5633   -1.3396 C   0  0  2  0  0  0  0  0  0  0  0  0
    0.7186   -1.6582   -0.2618 C   0  0  0  0  0  0  0  0  0  0  0  0
    1.2369    1.2973   -1.0203 C   0  0  0  0  0  0  0  0  0  0  0  0
   -1.6046   -2.4218   -0.1689 H   0  0  0  0  0  0  0  0  0  0  0  0
   -1.4056    1.7752    0.2481 H   0  0  0  0  0  0  0  0  0  0  0  0
   -0.5224    0.5640   -2.3215 H   0  0  0  0  0  0  0  0  0  0  0  0
    0.0313    0.4157    2.0313 H   0  0  0  0  0  0  0  0  0  0  0  0
    1.1980    2.2933   -1.4436 H   0  0  0  0  0  0  0  0  0  0  0  0
    2.2205    0.8612   -1.1692 H   0  0  0  0  0  0  0  0  0  0  0  0
   -2.6701   -0.6989   -0.0397 O   0  0  0  0  0  0  0  0  0  0  0  0
    0.8888    1.4639    0.3500 O   0  0  0  0  0  0  0  0  0  0  0  0
    1.5156   -2.5221   -0.2416 N   0  0  0  0  0  0  0  0  0  0  0  0
  1  8  1  0  0  0  0
  1 14  2  0  0  0  0
  2  9  1  0  0  0  0
  2  4  1  0  0  0  0
  3  6  1  6  0  0  0
  3  1  1  0  0  0  0
  3  4  1  0  0  0  0
  4 11  1  1  0  0  0
  5 10  1  6  0  0  0
  5  7  1  0  0  0  0
  5  3  1  0  0  0  0
  5  2  1  0  0  0  0
  6 16  3  0  0  0  0
  7 15  1  0  0  0  0
 12  7  1  0  0  0  0
 13  7  1  0  0  0  0
 15  4  1  0  0  0  0
M  END
$$$$
end
 OpenBabel10282513463D

 17 17  0  0  0  0  0  0  0  0999 V2000
   -2.0713   -2.0176   -0.8932 C   0  0  0  0  0  0  0  0  0  0  0  0
   -1.0863   -1.8114    0.0386 C   0  0  0  0  0  0  0  0  0  0  0  0
   -0.1708   -0.7841   -0.2858 C   0  0  0  0  0  0  0  0  0  0  0  0
    1.0433   -0.4195    0.5340 C   0  0  0  0  0  0  0  0  0  0  0  0
    2.5415    1.4377    0.3177 C   0  0  0  0  0  0  0  0  0  0  0  0
   -2.8102   -2.8176   -0.8330 H   0  0  0  0  0  0  0  0  0  0  0  0
   -2.8301   -1.3671   -2.7260 H   0  0  0  0  0  0  0  0  0  0  0  0
   -1.0032   -2.3924    0.9423 H   0  0  0  0  0  0  0  0  0  0  0  0
    0.7761   -0.0548    1.5267 H   0  0  0  0  0  0  0  0  0  0  0  0
    1.7247   -1.2848    0.6682 H   0  0  0  0  0  0  0  0  0  0  0  0
    2.0535    2.1217    1.0472 H   0  0  0  0  0  0  0  0  0  0  0  0
    2.9408    2.0653   -0.5045 H   0  0  0  0  0  0  0  0  0  0  0  0
    3.3391    0.9056    0.8446 H   0  0  0  0  0  0  0  0  0  0  0  0
    1.6447    0.5459   -0.2870 O   0  0  0  0  0  0  0  0  0  0  0  0
   -2.1330   -1.2138   -1.9871 N   0  0  0  0  0  0  0  0  0  0  0  0
   -1.3016   -0.2411   -2.1750 N   0  0  0  0  0  2  0  0  0  0  0  0
   -0.3548   -0.0221   -1.3311 N   0  0  0  0  0  0  0  0  0  0  0  0
  1  6  1  0  0  0  0
  1  2  2  0  0  0  0
  2  8  1  0  0  0  0
  3  2  1  0  0  0  0
  3  4  1  0  0  0  0
  4 10  1  0  0  0  0
  4  9  1  0  0  0  0
  5 13  1  0  0  0  0
  5 11  1  0  0  0  0
  7 15  1  0  0  0  0
 12  5  1  0  0  0  0
 14  5  1  0  0  0  0
 14  4  1  0  0  0  0
 15  1  1  0  0  0  0
 16 15  1  0  0  0  0
 16 17  1  0  0  0  0
 17  3  2  0  0  0  0
M  END
$$$$
end
 OpenBabel10282513463D

 17 19  0  0  1  0  0  0  0  0999 V2000
   -1.6167   -0.8046    0.7544 C   0  0  0  0  0  0  0  0  0  0  0  0
   -1.0702   -0.7702   -0.6874 C   0  0  1  0  0  0  0  0  0  0  0  0
   -0.7923    0.7640   -0.5441 C   0  0  1  0  0  0  0  0  0  0  0  0
   -0.3521    0.1141    0.8205 C   0  0  2  0  0  0  0  0  0  0  0  0
    0.3952   -0.8491   -0.1244 C   0  0  2  0  0  0  0  0  0  0  0  0
    0.4787    1.0269   -1.3503 C   0  0  1  0  0  0  0  0  0  0  0  0
    1.3633    2.2349   -1.0402 C   0  0  0  0  0  0  0  0  0  0  0  0
   -2.5906   -0.3553    0.9158 H   0  0  0  0  0  0  0  0  0  0  0  0
   -1.5290   -1.7636    1.2425 H   0  0  0  0  0  0  0  0  0  0  0  0
   -1.4237   -1.2455   -1.5957 H   0  0  0  0  0  0  0  0  0  0  0  0
   -1.5762    1.5276   -0.5622 H   0  0  0  0  0  0  0  0  0  0  0  0
    0.0527    0.6281    1.6985 H   0  0  0  0  0  0  0  0  0  0  0  0
    0.3124    1.1138   -2.4346 H   0  0  0  0  0  0  0  0  0  0  0  0
    0.8657   -1.7688    0.2387 H   0  0  0  0  0  0  0  0  0  0  0  0
    2.3772    2.1052   -1.3676 H   0  0  0  0  0  0  0  0  0  0  0  0
    0.9494    3.2057   -0.4720 O   0  0  0  0  0  0  0  0  0  0  0  0
    1.2116   -0.1642   -1.0413 O   0  0  0  0  0  0  0  0  0  0  0  0
  1  4  1  0  0  0  0
  1  8  1  0  0  0  0
  1  9  1  0  0  0  0
  2 10  1  6  0  0  0
  2  3  1  0  0  0  0
  2  5  1  0  0  0  0
  2  1  1  0  0  0  0
  3 11  1  6  0  0  0
  3  4  1  0  0  0  0
  4 12  1  1  0  0  0
  5 14  1  1  0  0  0
  5  4  1  0  0  0  0
  6 13  1  6  0  0  0
  6 17  1  0  0  0  0
  6  7  1  0  0  0  0
  6  3  1  0  0  0  0
  7 16  2  0  0  0  0
 15  7  1  0  0  0  0
 17  5  1  0  0  0  0
M  END
$$$$
end
 OpenBabel10282513463D

 19 18  0  0  0  0  0  0  0  0999 V2000
   -1.0511    0.1405    1.9184 C   0  0  0  0  0  0  0  0  0  0  0  0
   -0.8111    0.4100    0.4321 C   0  0  0  0  0  0  0  0  0  0  0  0
    0.6539    0.2528    0.0331 C   0  0  0  0  0  0  0  0  0  0  0  0
    0.8662    0.5405   -1.4453 C   0  0  0  0  0  0  0  0  0  0  0  0
    2.3860    0.3224   -3.4328 C   0  0  0  0  0  1  0  0  0  0  0  0
    2.2753    0.1643   -1.8936 C   0  0  0  0  0  0  0  0  0  0  0  0
   -3.0815   -0.1023    1.6746 H   0  0  0  0  0  0  0  0  0  0  0  0
   -2.5872    0.1733    3.1889 H   0  0  0  0  0  0  0  0  0  0  0  0
   -1.4352   -0.2676   -0.1426 H   0  0  0  0  0  0  0  0  0  0  0  0
   -1.1877    1.3979    0.1907 H   0  0  0  0  0  0  0  0  0  0  0  0
   -0.7202   -0.8979    2.1616 H   0  0  0  0  0  0  0  0  0  0  0  0
   -0.3863    0.7990    2.4856 H   0  0  0  0  0  0  0  0  0  0  0  0
    0.1329   -0.0601   -2.0304 H   0  0  0  0  0  0  0  0  0  0  0  0
    0.6533    1.5925   -1.7010 H   0  0  0  0  0  0  0  0  0  0  0  0
    0.9820   -0.7672    0.2792 H   0  0  0  0  0  0  0  0  0  0  0  0
    1.2813    0.9050    0.6298 H   0  0  0  0  0  0  0  0  0  0  0  0
    2.4943   -0.8866   -1.6424 H   0  0  0  0  0  0  0  0  0  0  0  0
    2.9929    0.8075   -1.3681 H   0  0  0  0  0  0  0  0  0  0  0  0
   -2.4204    0.4143    2.2378 N   0  0  0  0  0  0  0  0  0  0  0  0
  1 11  1  0  0  0  0
  1 19  1  0  0  0  0
  1 12  1  0  0  0  0
  2  1  1  0  0  0  0
  3 15  1  0  0  0  0
  3  2  1  0  0  0  0
  3 16  1  0  0  0  0
  4  3  1  0  0  0  0
  5  6  1  0  0  0  0
  6 17  1  0  0  0  0
  6  4  1  0  0  0  0
  6 18  1  0  0  0  0
  7 19  1  0  0  0  0
  9  2  1  0  0  0  0
 10  2  1  0  0  0  0
 13  4  1  0  0  0  0
 14  4  1  0  0  0  0
 19  8  1  0  0  0  0
M  END
$$$$
end
 OpenBabel10282513463D

 15 15  0  0  0  0  0  0  0  0999 V2000
   -3.0672   -0.3779   -0.1353 C   0  0  0  0  0  0  0  0  0  0  0  0
   -1.6121   -0.5985   -0.1364 C   0  0  0  0  0  0  0  0  0  0  0  0
   -0.9218   -1.7288    0.0670 C   0  0  0  0  0  3  0  0  0  0  0  0
    0.4836   -0.1385   -0.4679 C   0  0  0  0  0  0  0  0  0  0  0  0
    1.7391    0.5721   -0.7545 C   0  0  0  0  0  0  0  0  0  0  0  0
   -3.6510   -1.2377    0.3201 H   0  0  0  0  0  0  0  0  0  0  0  0
   -3.4438   -0.3197   -1.1489 H   0  0  0  0  0  0  0  0  0  0  0  0
   -3.3555    0.4886    0.4349 H   0  0  0  0  0  0  0  0  0  0  0  0
   -1.3078   -2.6971    0.3799 H   0  0  0  0  0  0  0  0  0  0  0  0
    1.1439   -2.1292   -0.1933 H   0  0  0  0  0  0  0  0  0  0  0  0
    1.6398    1.6138   -0.5101 H   0  0  0  0  0  0  0  0  0  0  0  0
    2.0024    0.5009   -1.8131 H   0  0  0  0  0  0  0  0  0  0  0  0
    2.6246    0.1933   -0.1789 H   0  0  0  0  0  0  0  0  0  0  0  0
   -0.7352    0.4286   -0.4793 N   0  0  0  0  0  4  0  0  0  0  0  0
    0.3948   -1.4648   -0.2049 N   0  0  0  0  0  0  0  0  0  0  0  0
  1  6  1  0  0  0  0
  1  8  1  0  0  0  0
  2  1  1  0  0  0  0
  2  3  1  0  0  0  0
  3  9  1  0  0  0  0
  4 15  1  0  0  0  0
  5 11  1  0  0  0  0
  5  4  1  0  0  0  0
  5 13  1  0  0  0  0
  7  1  1  0  0  0  0
 12  5  1  0  0  0  0
 14  4  2  0  0  0  0
 14  2  2  0  0  0  0
 15 10  1  0  0  0  0
 15  3  1  0  0  0  0
M  END
$$$$
end
 OpenBabel10282513463D

 22 22  0  0  1  0  0  0  0  0999 V2000
   -1.9678   -2.3061    0.7489 C   0  0  0  0  0  0  0  0  0  0  0  0
   -1.3284   -1.0425    1.3736 C   0  0  0  0  0  0  0  0  0  0  0  0
   -0.3562   -0.4330    0.4499 C   0  0  0  0  0  0  0  0  0  0  0  0
   -0.0456   -0.7227   -0.8494 C   0  0  0  0  0  0  0  0  0  0  0  0
    1.2470    0.9972   -0.2066 C   0  0  2  0  0  3  0  0  0  0  0  0
    1.6366    0.0607   -2.5345 C   0  0  0  0  0  0  0  0  0  0  0  0
    2.2382    2.0754   -0.1287 C   0  0  0  0  0  0  0  0  0  0  0  0
   -2.6538   -2.7610    1.4491 H   0  0  0  0  0  0  0  0  0  0  0  0
   -2.5438   -2.0222   -0.1372 H   0  0  0  0  0  0  0  0  0  0  0  0
   -2.1103   -0.3341    1.6513 H   0  0  0  0  0  0  0  0  0  0  0  0
   -1.2223   -3.0345    0.4236 H   0  0  0  0  0  0  0  0  0  0  0  0
   -0.8278   -1.3223    2.3010 H   0  0  0  0  0  0  0  0  0  0  0  0
   -0.4164   -1.4693   -1.5126 H   0  0  0  0  0  0  0  0  0  0  0  0
    0.5040    1.0177    1.7499 H   0  0  0  0  0  0  0  0  0  0  0  0
    0.9328   -0.3288   -3.3159 H   0  0  0  0  0  0  0  0  0  0  0  0
    1.9932    1.0155   -2.8621 H   0  0  0  0  0  0  0  0  0  0  0  0
    2.0542    2.6697    0.7531 H   0  0  0  0  0  0  0  0  0  0  0  0
    2.1798    2.7297   -1.0075 H   0  0  0  0  0  0  0  0  0  0  0  0
    2.4735   -0.6393   -2.4982 H   0  0  0  0  0  0  0  0  0  0  0  0
    3.2784    1.7062   -0.0778 H   0  0  0  0  0  0  0  0  0  0  0  0
    0.4772    0.6078    0.8229 N   0  0  0  0  0  0  0  0  0  0  0  0
    0.9641    0.1607   -1.2453 N   0  0  0  0  0  0  0  0  0  0  0  0
  1  2  1  0  0  0  0
  1  8  1  0  0  0  0
  2 10  1  0  0  0  0
  2 12  1  0  0  0  0
  3 21  1  0  0  0  0
  3  2  1  0  0  0  0
  4  3  2  0  0  0  0
  5  7  1  1  0  0  0
  5 21  1  0  0  0  0
  6 19  1  0  0  0  0
  6 22  1  0  0  0  0
  7 20  1  0  0  0  0
  7 17  1  0  0  0  0
  9  1  1  0  0  0  0
 11  1  1  0  0  0  0
 13  4  1  0  0  0  0
 15  6  1  0  0  0  0
 16  6  1  0  0  0  0
 18  7  1  0  0  0  0
 21 14  1  0  0  0  0
 22  4  1  0  0  0  0
 22  5  1  0  0  0  0
M  END
$$$$
end
 OpenBabel10282513463D

 16 14  0  0  1  0  0  0  0  0999 V2000
   -1.3126   -1.4807   -0.5916 C   0  0  0  0  0  0  0  0  0  0  0  0
   -0.0207   -1.1159    0.0840 C   0  0  2  0  0  0  0  0  0  0  0  0
    0.2554    0.3266    0.0295 C   0  0  0  0  0  0  0  0  0  0  0  0
    2.3996    0.1413    1.1831 C   0  0  0  0  0  0  0  0  0  0  0  0
   -2.5190    0.0618   -0.4280 H   0  0  0  0  0 15  0  0  0  0  0  0
   -0.1351   -1.3650    1.2372 H   0  0  0  0  0  0  0  0  0  0  0  0
    0.9214   -2.7635    0.2512 H   0  0  0  0  0  0  0  0  0  0  0  0
    1.3926    1.8764    0.5370 H   0  0  0  0  0  0  0  0  0  0  0  0
    1.9219   -0.4381    2.0113 H   0  0  0  0  0  0  0  0  0  0  0  0
    2.8927   -0.5508    0.5225 H   0  0  0  0  0  0  0  0  0  0  0  0
    3.1417    0.8366    1.5937 H   0  0  0  0  0  0  0  0  0  0  0  0
   -2.0397   -2.3383   -0.5418 O   0  0  0  0  0  1  0  0  0  0  0  0
   -1.2684   -0.8805   -1.8689 O   0  0  0  0  0  0  0  0  0  0  0  0
   -0.6143    1.1521   -0.5727 O   0  0  0  0  0  0  0  0  0  0  0  0
    0.9032   -2.0077   -0.3067 O   0  0  0  0  0  0  0  0  0  0  0  0
    1.4014    0.8956    0.4290 N   0  0  0  0  0  0  0  0  0  0  0  0
  1 12  1  0  0  0  0
  1  2  1  0  0  0  0
  2  6  1  1  0  0  0
  3  2  1  0  0  0  0
  3 16  1  0  0  0  0
  4 11  1  0  0  0  0
  4  9  1  0  0  0  0
 10  4  1  0  0  0  0
 13  1  2  0  0  0  0
 14  3  2  0  0  0  0
 15  2  1  0  0  0  0
 15  7  1  0  0  0  0
 16  8  1  0  0  0  0
 16  4  1  0  0  0  0
M  END
$$$$
end
 OpenBabel10282513463D

 15 14  0  0  1  0  0  0  0  0999 V2000
   -0.8116   -1.1289    0.9141 C   0  0  0  0  0  0  0  0  0  0  0  0
    0.0219    1.1887    1.0036 C   0  0  0  0  0  0  0  0  0  0  0  0
    0.4005   -0.2853    0.8319 C   0  0  1  0  0  0  0  0  0  0  0  0
    0.4061   -0.0924   -1.5943 C   0  0  0  0  0  0  0  0  0  0  0  0
    1.4105   -0.6984    1.9169 C   0  0  0  0  0  0  0  0  0  0  0  0
   -0.6944   -0.0960   -1.5081 H   0  0  0  0  0  0  0  0  0  0  0  0
   -0.8142    1.4626    0.3586 H   0  0  0  0  0  0  0  0  0  0  0  0
   -0.2860    1.3891    2.0414 H   0  0  0  0  0  0  0  0  0  0  0  0
    0.7141   -0.7718   -2.3927 H   0  0  0  0  0  0  0  0  0  0  0  0
    0.6871    0.9153   -1.8539 H   0  0  0  0  0  0  0  0  0  0  0  0
    0.8925    1.8311    0.7650 H   0  0  0  0  0  0  0  0  0  0  0  0
    2.4439   -0.7457    1.6231 H   0  0  0  0  0  0  0  0  0  0  0  0
    1.1334   -0.8886    3.0894 O   0  0  0  0  0  0  0  0  0  0  0  0
    1.0748   -0.5312   -0.3896 O   0  0  0  0  0  0  0  0  0  0  0  0
   -1.7891   -1.7694    0.9743 N   0  0  0  0  0  0  0  0  0  0  0  0
  1 15  3  0  0  0  0
  2  8  1  0  0  0  0
  3  1  1  1  0  0  0
  3  2  1  0  0  0  0
  3  5  1  0  0  0  0
  4  6  1  0  0  0  0
  4 14  1  0  0  0  0
  5 13  2  0  0  0  0
  7  2  1  0  0  0  0
  9  4  1  0  0  0  0
 10  4  1  0  0  0  0
 11  2  1  0  0  0  0
 12  5  1  0  0  0  0
 14  3  1  0  0  0  0
M  END
$$$$
end
 OpenBabel10282513463D

 20 19  0  0  1  0  0  0  0  0999 V2000
   -1.2300    2.3457   -1.5671 C   0  0  0  0  0  0  0  0  0  0  0  0
   -0.5002    0.6607    0.2008 C   0  0  2  0  0  0  0  0  0  0  0  0
   -0.1622    1.3228   -1.1491 C   0  0  0  0  0  0  0  0  0  0  0  0
    0.0667   -1.1645    1.8876 C   0  0  0  0  0  0  0  0  0  0  0  0
    0.3025   -0.6421    0.4480 C   0  0  0  0  0  0  0  0  0  0  0  0
    0.9654   -2.3385    2.2693 C   0  0  0  0  0  0  0  0  0  0  0  0
   -2.3641    0.8156   -0.2322 H   0  0  0  0  0  0  0  0  0  0  0  0
   -0.9958   -1.4606    1.9939 H   0  0  0  0  0  0  0  0  0  0  0  0
   -0.1800    0.5691   -1.9480 H   0  0  0  0  0  0  0  0  0  0  0  0
   -0.2561    1.4024    0.9987 H   0  0  0  0  0  0  0  0  0  0  0  0
   -0.0039   -1.4017   -0.3005 H   0  0  0  0  0  0  0  0  0  0  0  0
    0.2351   -0.3508    2.5802 H   0  0  0  0  0  0  0  0  0  0  0  0
    0.8333   -3.1726    1.5825 H   0  0  0  0  0  0  0  0  0  0  0  0
    0.7507   -2.6861    3.2882 H   0  0  0  0  0  0  0  0  0  0  0  0
    0.8330    1.7633   -1.1358 H   0  0  0  0  0  0  0  0  0  0  0  0
    1.3738   -0.4228    0.2985 H   0  0  0  0  0  0  0  0  0  0  0  0
    2.0239   -2.0610    2.2231 H   0  0  0  0  0  0  0  0  0  0  0  0
   -2.4663    2.0836   -1.5297 O   0  0  0  0  0  1  0  0  0  0  0  0
   -1.8241    0.3275    0.3300 O   0  0  0  0  0  0  0  0  0  0  0  0
   -0.7769    3.4065   -2.2152 O   0  0  0  0  0  0  0  0  0  0  0  0
  1 18  1  0  0  0  0
  1  3  1  0  0  0  0
  2 19  1  0  0  0  0
  2  5  1  0  0  0  0
  2 10  1  1  0  0  0
  3 15  1  0  0  0  0
  3  2  1  0  0  0  0
  4  8  1  0  0  0  0
  4  6  1  0  0  0  0
  4 12  1  0  0  0  0
  5  4  1  0  0  0  0
  6 14  1  0  0  0  0
  7 19  1  0  0  0  0
  9  3  1  0  0  0  0
 11  5  1  0  0  0  0
 13  6  1  0  0  0  0
 16  5  1  0  0  0  0
 17  6  1  0  0  0  0
 20  1  2  0  0  0  0
M  END
$$$$
end
 OpenBabel10282513463D

 14 14  0  0  0  0  0  0  0  0999 V2000
   -0.6131   -1.0892    1.6929 C   0  0  0  0  0  0  0  0  0  0  0  0
   -0.1063   -1.0963   -1.8987 C   0  0  0  0  0  0  0  0  0  0  0  0
   -0.1160   -0.6610    0.3553 C   0  0  0  0  0  0  0  0  0  0  0  0
    0.6519    0.4962    0.1356 C   0  0  0  0  0  3  0  0  0  0  0  0
    1.0162    0.7443   -1.1788 C   0  0  0  0  0  0  0  0  0  0  0  0
   -1.5210   -0.4953    1.9205 H   0  0  0  0  0  0  0  0  0  0  0  0
   -1.1353   -2.5481   -2.2206 H   0  0  0  0  0  0  0  0  0  0  0  0
   -0.8828   -2.1564    1.7389 H   0  0  0  0  0  0  0  0  0  0  0  0
    0.1157   -0.8883    2.5125 H   0  0  0  0  0  0  0  0  0  0  0  0
    0.9177    1.1547    0.9293 H   0  0  0  0  0  0  0  0  0  0  0  0
    1.6339    1.6348   -1.4453 H   0  0  0  0  0  0  0  0  0  0  0  0
   -0.5521   -1.8902   -2.8154 O   0  0  0  0  0  0  0  0  0  0  0  0
   -0.5152   -1.4216   -0.6588 N   0  0  0  0  0  4  0  0  0  0  0  0
    0.6388   -0.0228   -2.2069 N   0  0  0  0  0  4  0  0  0  0  0  0
  1  8  1  0  0  0  0
  1  6  1  0  0  0  0
  1  9  1  0  0  0  0
  2 13  2  0  0  0  0
  3  1  1  0  0  0  0
  4  3  1  0  0  0  0
  4 10  1  0  0  0  0
  5  4  1  0  0  0  0
 11  5  1  0  0  0  0
 12  7  1  0  0  0  0
 12  2  1  0  0  0  0
 13  3  2  0  0  0  0
 14  2  2  0  0  0  0
 14  5  2  0  0  0  0
M  END
$$$$
end
 OpenBabel10282513463D

 18 18  0  0  1  0  0  0  0  0999 V2000
   -0.1344    1.3917    0.9716 C   0  0  0  0  0  0  0  0  0  0  0  0
   -0.0348    1.9224   -0.4093 C   0  0  0  0  0  0  0  0  0  0  0  0
    0.3867   -0.9122    0.0443 C   0  0  1  0  0  0  0  0  0  0  0  0
    0.3203   -0.0409    1.2789 C   0  0  0  0  0  0  0  0  0  0  0  0
    0.6108    1.0955   -1.5428 C   0  0  0  0  0  0  0  0  0  0  0  0
    1.2603   -0.1985   -1.0414 C   0  0  0  0  0  0  0  0  0  0  0  0
   -0.6379   -1.0178   -0.3761 H   0  0  0  0  0  0  0  0  0  0  0  0
   -0.3475   -0.4849    2.0110 H   0  0  0  0  0  0  0  0  0  0  0  0
   -0.1709    0.8899   -2.2452 H   0  0  0  0  0  0  0  0  0  0  0  0
    0.8850   -2.8540   -0.3834 H   0  0  0  0  0  0  0  0  0  0  0  0
    1.3157    0.0687    1.7168 H   0  0  0  0  0  0  0  0  0  0  0  0
    1.3557    1.7394   -2.0125 H   0  0  0  0  0  0  0  0  0  0  0  0
    1.4214   -0.8667   -1.8715 H   0  0  0  0  0  0  0  0  0  0  0  0
    1.8407   -2.1899    0.8442 H   0  0  0  0  0  0  0  0  0  0  0  0
    2.2312    0.0207   -0.5854 H   0  0  0  0  0  0  0  0  0  0  0  0
   -0.5791    2.0715    1.8771 O   0  0  0  0  0  0  0  0  0  0  0  0
   -0.4980    3.0604   -0.6353 O   0  0  0  0  0  0  0  0  0  0  0  0
    0.9165   -2.2342    0.4110 N   0  0  0  0  0  0  0  0  0  0  0  0
  1  4  1  0  0  0  0
  1 16  2  0  0  0  0
  2  1  1  0  0  0  0
  3  7  1  6  0  0  0
  3 18  1  0  0  0  0
  3  4  1  0  0  0  0
  4 11  1  0  0  0  0
  4  8  1  0  0  0  0
  5  6  1  0  0  0  0
  5  2  1  0  0  0  0
  6 15  1  0  0  0  0
  6  3  1  0  0  0  0
  9  5  1  0  0  0  0
 10 18  1  0  0  0  0
 12  5  1  0  0  0  0
 13  6  1  0  0  0  0
 17  2  2  0  0  0  0
 18 14  1  0  0  0  0
M  END
$$$$
end
 OpenBabel10282513463D

 21 20  0  0  0  0  0  0  0  0999 V2000
   -2.5757   -3.0827    1.5220 C   0  0  0  0  0  0  0  0  0  0  0  0
   -1.6294   -2.1348    0.9491 C   0  0  0  0  0  0  0  0  0  0  0  0
   -1.3380   -0.9284    1.8767 C   0  0  0  0  0  0  0  0  0  0  0  0
   -0.1985   -0.0096    1.4098 C   0  0  0  0  0  0  0  0  0  0  0  0
    0.2796    2.1317   -1.6083 C   0  0  0  0  0  0  0  0  0  0  0  0
    0.5987    1.5252   -0.2670 C   0  0  0  0  0  0  0  0  0  0  0  0
   -2.2400   -0.3351    1.9771 H   0  0  0  0  0  0  0  0  0  0  0  0
   -1.9576   -1.7652   -0.0449 H   0  0  0  0  0  0  0  0  0  0  0  0
   -1.0903   -1.3184    2.8774 H   0  0  0  0  0  0  0  0  0  0  0  0
   -0.6739   -2.6709    0.7360 H   0  0  0  0  0  0  0  0  0  0  0  0
   -0.7122    0.0130   -0.5184 H   0  0  0  0  0  0  0  0  0  0  0  0
   -0.6541    2.7188   -1.5711 H   0  0  0  0  0  0  0  0  0  0  0  0
   -0.0108    0.7317    2.1803 H   0  0  0  0  0  0  0  0  0  0  0  0
    0.1177    1.3587   -2.3801 H   0  0  0  0  0  0  0  0  0  0  0  0
    0.6973   -0.6177    1.3116 H   0  0  0  0  0  0  0  0  0  0  0  0
    0.7420    2.3313    0.4574 H   0  0  0  0  0  0  0  0  0  0  0  0
    1.2277    3.3540   -2.7853 H   0  0  0  0  0  0  0  0  0  0  0  0
    1.5499    0.9818   -0.3274 H   0  0  0  0  0  0  0  0  0  0  0  0
    1.4048    2.9448   -1.9555 O   0  0  0  0  0  0  0  0  0  0  0  0
   -3.4047   -3.8792    1.9556 N   0  0  0  0  0  0  0  0  0  0  0  0
   -0.4974    0.6987    0.2011 N   0  0  0  0  0  0  0  0  0  0  0  0
  1 20  3  0  0  0  0
  2  1  1  0  0  0  0
  2  3  1  0  0  0  0
  3  7  1  0  0  0  0
  3  9  1  0  0  0  0
  4  3  1  0  0  0  0
  4 13  1  0  0  0  0
  5 12  1  0  0  0  0
  5  6  1  0  0  0  0
  6 21  1  0  0  0  0
  6 16  1  0  0  0  0
  8  2  1  0  0  0  0
 10  2  1  0  0  0  0
 11 21  1  0  0  0  0
 14  5  1  0  0  0  0
 15  4  1  0  0  0  0
 17 19  1  0  0  0  0
 18  6  1  0  0  0  0
 19  5  1  0  0  0  0
 21  4  1  0  0  0  0
M  END
$$$$
end
 OpenBabel10282513463D

 11 11  0  0  0  0  0  0  0  0999 V2000
   -0.5369    0.7683   -0.0127 C   0  0  0  0  0  0  0  0  0  0  0  0
    0.1195    0.4756    1.2458 C   0  0  0  0  0  0  0  0  0  0  0  0
    0.1881    0.3028   -1.1497 C   0  0  0  0  0  0  0  0  0  0  0  0
    1.3163   -0.4349   -0.9702 C   0  0  0  0  0  0  0  0  0  0  0  0
   -2.1788    1.6591    0.6605 H   0  0  0  0  0  0  0  0  0  0  0  0
   -0.2006    0.6157   -2.1198 H   0  0  0  0  0  0  0  0  0  0  0  0
   -0.3346    0.8754    2.1414 H   0  0  0  0  0  0  0  0  0  0  0  0
    1.8242   -0.8885   -1.8364 H   0  0  0  0  0  0  0  0  0  0  0  0
   -1.7096    1.4055   -0.1859 N   0  0  0  0  0  2  0  0  0  0  0  0
    1.2321   -0.1851    1.3812 N   0  0  0  0  0  0  0  0  0  0  0  0
    1.8511   -0.6805    0.2221 N   0  0  0  0  0  0  0  0  0  0  0  0
  1  2  1  0  0  0  0
  2 10  2  0  0  0  0
  2  7  1  0  0  0  0
  3  4  1  0  0  0  0
  3  1  2  0  0  0  0
  4 11  2  0  0  0  0
  6  3  1  0  0  0  0
  8  4  1  0  0  0  0
  9  1  1  0  0  0  0
  9  5  1  0  0  0  0
 11 10  1  0  0  0  0
M  END
$$$$
end
 OpenBabel10282513463D

 14 12  0  0  0  0  0  0  0  0999 V2000
   -3.7048   -0.6013   -0.2322 C   0  0  0  0  0  1  0  0  0  0  0  0
   -2.1679   -0.5434   -0.3552 C   0  0  0  0  0  2  0  0  0  0  0  0
   -1.1576   -1.5306   -0.5195 C   0  0  0  0  0  2  0  0  0  0  0  0
   -0.0948    0.3977   -0.2542 C   0  0  0  0  0  3  0  0  0  0  0  0
    2.2036    0.9818   -0.1324 C   0  0  0  0  0  0  0  0  0  0  0  0
    2.7620    0.8716    1.2751 C   0  0  0  0  0  0  0  0  0  0  0  0
   -1.9811    1.6057   -0.3850 H   0  0  0  0  0 15  0  0  0  0  0  0
    2.4075    0.0775   -0.6981 H   0  0  0  0  0  0  0  0  0  0  0  0
    2.3425    0.0016    1.8215 H   0  0  0  0  0  0  0  0  0  0  0  0
    2.5923    1.7636    1.8568 H   0  0  0  0  0  0  0  0  0  0  0  0
    2.7183    1.7918   -0.6361 H   0  0  0  0  0  0  0  0  0  0  0  0
    3.9324    0.7345    1.1973 H   0  0  0  0  0  0  0  0  0  0  0  0
    0.0976   -0.9630   -0.3558 O   0  0  0  0  0  0  0  0  0  0  0  0
    0.8268    1.2787   -0.1155 N   0  0  0  0  0  0  0  0  0  0  0  0
  2  1  1  0  0  0  0
  3 13  1  0  0  0  0
  3  2  1  0  0  0  0
  4 14  2  0  0  0  0
  5 14  1  0  0  0  0
  5  6  1  0  0  0  0
  6  9  1  0  0  0  0
  6 10  1  0  0  0  0
  8  5  1  0  0  0  0
 11  5  1  0  0  0  0
 12  6  1  0  0  0  0
 13  4  1  0  0  0  0
M  END
$$$$
end
 OpenBabel10282513463D

 15 16  0  0  1  0  0  0  0  0999 V2000
   -2.3063    0.0188   -0.8048 C   0  0  0  0  0  3  0  0  0  0  0  0
   -1.1381    0.4013    1.8217 C   0  0  0  0  0  0  0  0  0  0  0  0
   -0.8774    0.0541   -0.6681 C   0  0  0  0  0  0  0  0  0  0  0  0
   -0.2852    0.2510    0.6254 C   0  0  1  0  0  3  0  0  0  0  0  0
    0.1644   -0.0544   -1.6305 C   0  0  0  0  0  0  0  0  0  0  0  0
    1.1050    0.2841    0.4252 C   0  0  0  0  0  0  0  0  0  0  0  0
    1.3714    0.1370   -0.9530 C   0  0  0  0  0  0  0  0  0  0  0  0
   -2.8130   -0.0119   -1.7178 H   0  0  0  0  0  0  0  0  0  0  0  0
   -1.1239    1.4219    2.1889 H   0  0  0  0  0  0  0  0  0  0  0  0
   -0.8288   -0.2372    2.6486 H   0  0  0  0  0  0  0  0  0  0  0  0
    0.0134   -0.2492   -2.6494 H   0  0  0  0  0  0  0  0  0  0  0  0
    1.8369    0.4418    1.2001 H   0  0  0  0  0  0  0  0  0  0  0  0
    2.3616    0.1157   -1.3772 H   0  0  0  0  0  0  0  0  0  0  0  0
   -2.9947    0.2586    0.2645 O   0  0  0  0  0  0  0  0  0  0  0  0
   -2.4623    0.0486    1.5215 O   0  0  0  0  0  0  0  0  0  0  0  0
  1  3  1  0  0  0  0
  1 14  1  0  0  0  0
  2  9  1  0  0  0  0
  2 10  1  0  0  0  0
  4  3  1  6  0  0  0
  4  2  1  0  0  0  0
  5  7  1  0  0  0  0
  5  3  2  0  0  0  0
  6  4  1  0  0  0  0
  6 12  1  0  0  0  0
  7  6  2  0  0  0  0
  8  1  1  0  0  0  0
 11  5  1  0  0  0  0
 13  7  1  0  0  0  0
 14 15  1  0  0  0  0
 15  2  1  0  0  0  0
M  END
$$$$
end
 OpenBabel10282513463D

 19 18  0  0  0  0  0  0  0  0999 V2000
   -2.8709   -0.2736   -2.1758 C   0  0  0  0  0  3  0  0  0  0  0  0
   -1.6351    0.0717   -2.1789 C   0  0  0  0  0  0  0  0  0  0  0  0
   -0.8844    1.0601   -1.2857 C   0  0  0  0  0  0  0  0  0  0  0  0
   -0.0105    0.8749    0.8434 C   0  0  0  0  0  0  0  0  0  0  0  0
    0.7546   -0.0060    1.8078 C   0  0  0  0  0  0  0  0  0  0  0  0
    1.0790   -1.4160    1.4215 C   0  0  0  0  0  3  0  0  0  0  0  0
    1.5451   -2.3099    2.4910 C   0  0  0  0  0  0  0  0  0  0  0  0
   -3.8213   -0.8739   -2.6439 H   0  0  0  0  0  0  0  0  0  0  0  0
   -1.5718    1.7778   -0.8169 H   0  0  0  0  0  0  0  0  0  0  0  0
   -1.1049    1.0960    1.3162 H   0  0  0  0  0  0  0  0  0  0  0  0
   -0.8456   -0.4591   -2.8059 H   0  0  0  0  0  0  0  0  0  0  0  0
   -0.1461    1.6731   -1.8274 H   0  0  0  0  0  0  0  0  0  0  0  0
    0.3689    1.8805    0.8154 H   0  0  0  0  0  0  0  0  0  0  0  0
    0.4955   -1.7649    0.6812 H   0  0  0  0  0  0  0  0  0  0  0  0
    0.6892   -2.6486    3.0866 H   0  0  0  0  0  0  0  0  0  0  0  0
    2.0084   -3.1637    2.0224 H   0  0  0  0  0  0  0  0  0  0  0  0
    2.2601   -1.7942    3.1428 H   0  0  0  0  0  0  0  0  0  0  0  0
   -0.2251    0.2422   -0.3470 O   0  0  0  0  0  0  0  0  0  0  0  0
    0.9422    0.4663    2.9304 O   0  0  0  0  0  0  0  0  0  0  0  0
  2  1  2  0  0  0  0
  2  3  1  0  0  0  0
  3  9  1  0  0  0  0
  3 18  1  0  0  0  0
  4 10  1  0  0  0  0
  4  5  1  0  0  0  0
  5 19  2  0  0  0  0
  6  5  1  0  0  0  0
  6  7  1  0  0  0  0
  7 15  1  0  0  0  0
  7 17  1  0  0  0  0
  8  1  1  0  0  0  0
 11  2  1  0  0  0  0
 12  3  1  0  0  0  0
 13  4  1  0  0  0  0
 14  6  1  0  0  0  0
 16  7  1  0  0  0  0
 18  4  1  0  0  0  0
M  END
$$$$
end
 OpenBabel10282513463D

 20 21  0  0  1  0  0  0  0  0999 V2000
   -1.4010   -0.0253   -0.4613 C   0  0  1  0  0  0  0  0  0  0  0  0
   -0.6846   -1.0900    0.4244 C   0  0  0  0  0  0  0  0  0  0  0  0
   -0.0229    0.5217   -0.8353 C   0  0  1  0  0  0  0  0  0  0  0  0
    0.6123   -0.1604    0.4154 C   0  0  1  0  0  0  0  0  0  0  0  0
    0.6106    0.5479   -2.1651 C   0  0  0  0  0  0  0  0  0  0  0  0
    0.7491    0.7052    1.6712 C   0  0  0  0  0  0  0  0  0  0  0  0
   -2.9683   -0.9555   -1.1729 H   0  0  0  0  0  0  0  0  0  0  0  0
   -1.9524    0.7032    0.1427 H   0  0  0  0  0  0  0  0  0  0  0  0
   -1.1309   -1.3075    1.3922 H   0  0  0  0  0  0  0  0  0  0  0  0
   -0.5088   -2.0060   -0.1306 H   0  0  0  0  0  0  0  0  0  0  0  0
   -0.3802    2.2981   -1.7993 H   0  0  0  0  0  0  0  0  0  0  0  0
   -0.1764    1.2351    1.8779 H   0  0  0  0  0  0  0  0  0  0  0  0
   -0.0810    0.3014   -3.0162 H   0  0  0  0  0  0  0  0  0  0  0  0
    0.9474    0.0786    2.5413 H   0  0  0  0  0  0  0  0  0  0  0  0
    1.6389    0.2323   -2.2672 H   0  0  0  0  0  0  0  0  0  0  0  0
    1.5655    1.4105    1.5550 H   0  0  0  0  0  0  0  0  0  0  0  0
    1.9926   -1.3685    0.9195 H   0  0  0  0  0  0  0  0  0  0  0  0
   -2.1912   -0.4660   -1.5557 O   0  0  0  0  0  0  0  0  0  0  0  0
    1.8140   -0.8464    0.1566 O   0  0  0  0  0  0  0  0  0  0  0  0
    0.4175    1.7951   -1.4403 N   0  0  0  0  0  0  0  0  0  0  0  0
  1  8  1  1  0  0  0
  1  2  1  0  0  0  0
  2  9  1  0  0  0  0
  3  5  1  6  0  0  0
  3  1  1  0  0  0  0
  3  4  1  0  0  0  0
  4 19  1  6  0  0  0
  4  2  1  0  0  0  0
  4  6  1  0  0  0  0
  5 20  1  0  0  0  0
  6 12  1  0  0  0  0
  6 14  1  0  0  0  0
 10  2  1  0  0  0  0
 11 20  1  0  0  0  0
 13  5  1  0  0  0  0
 15  5  1  0  0  0  0
 16  6  1  0  0  0  0
 18  7  1  0  0  0  0
 18  1  1  0  0  0  0
 19 17  1  0  0  0  0
 20  3  1  0  0  0  0
M  END
$$$$
end
 OpenBabel10282513463D

 17 17  0  0  1  0  0  0  0  0999 V2000
   -0.1433    1.0955    0.0699 C   0  0  2  0  0  0  0  0  0  0  0  0
   -0.0370   -0.3943    0.1112 C   0  0  0  0  0  0  0  0  0  0  0  0
    0.2738    1.8972   -1.1414 C   0  0  2  0  0  0  0  0  0  0  0  0
    0.7877    1.2226   -2.3272 C   0  0  0  0  0  0  0  0  0  0  0  0
    0.9541   -1.1481    2.0967 C   0  0  0  0  0  0  0  0  0  0  0  0
    1.1313    1.9374    0.1292 C   0  0  0  0  0  0  0  0  0  0  0  0
    1.2150    0.6719   -3.2618 C   0  0  0  0  0  3  0  0  0  0  0  0
   -0.8726   -0.8386   -0.4569 H   0  0  0  0  0  0  0  0  0  0  0  0
   -0.9757    1.4596    0.6420 H   0  0  0  0  0  0  0  0  0  0  0  0
   -0.3096    2.7756   -1.3496 H   0  0  0  0  0  0  0  0  0  0  0  0
    0.6603   -1.3615    3.1349 H   0  0  0  0  0  0  0  0  0  0  0  0
    0.8926   -0.7585   -0.3745 H   0  0  0  0  0  0  0  0  0  0  0  0
    1.0996    2.8513    0.7023 H   0  0  0  0  0  0  0  0  0  0  0  0
    1.4229   -2.0448    1.6307 H   0  0  0  0  0  0  0  0  0  0  0  0
    1.6643   -0.3316    2.0526 H   0  0  0  0  0  0  0  0  0  0  0  0
    2.0752    1.4241    0.0774 H   0  0  0  0  0  0  0  0  0  0  0  0
   -0.2360   -0.8605    1.4281 O   0  0  0  0  0  0  0  0  0  0  0  0
  1  2  1  0  0  0  0
  1  6  1  0  0  0  0
  1  9  1  1  0  0  0
  2 17  1  0  0  0  0
  3 10  1  6  0  0  0
  3  1  1  0  0  0  0
  3  6  1  0  0  0  0
  4  3  1  0  0  0  0
  5 11  1  0  0  0  0
  6 13  1  0  0  0  0
  7  4  3  0  0  0  0
  8  2  1  0  0  0  0
 12  2  1  0  0  0  0
 14  5  1  0  0  0  0
 15  5  1  0  0  0  0
 16  6  1  0  0  0  0
 17  5  1  0  0  0  0
M  END
$$$$
end
 OpenBabel10282513463D

 19 19  0  0  1  0  0  0  0  0999 V2000
   -2.5432   -0.0974   -1.7543 C   0  0  0  0  0  0  0  0  0  0  0  0
   -1.0247   -0.3231   -1.6947 C   0  0  0  0  0  0  0  0  0  0  0  0
   -0.8014   -1.0855    0.7734 C   0  0  0  0  0  0  0  0  0  0  0  0
   -0.4648   -0.0436   -0.3135 C   0  0  1  0  0  0  0  0  0  0  0  0
    0.3193   -0.8007    1.7903 C   0  0  0  0  0  0  0  0  0  0  0  0
    1.4235   -0.2147    0.9433 C   0  0  0  0  0  0  0  0  0  0  0  0
   -3.0598   -0.7767   -1.0423 H   0  0  0  0  0  0  0  0  0  0  0  0
   -2.9192   -0.3211   -2.7632 H   0  0  0  0  0  0  0  0  0  0  0  0
   -2.8048    0.9322   -1.5158 H   0  0  0  0  0  0  0  0  0  0  0  0
   -1.8152   -0.9678    1.1499 H   0  0  0  0  0  0  0  0  0  0  0  0
   -0.6942   -2.1005    0.3724 H   0  0  0  0  0  0  0  0  0  0  0  0
   -0.7837   -1.3403   -1.9775 H   0  0  0  0  0  0  0  0  0  0  0  0
   -0.8184    0.9270    0.0497 H   0  0  0  0  0  0  0  0  0  0  0  0
   -0.5364    0.3309   -2.3981 H   0  0  0  0  0  0  0  0  0  0  0  0
   -0.0024   -0.0738    2.5344 H   0  0  0  0  0  0  0  0  0  0  0  0
    0.6796   -1.6645    2.2979 H   0  0  0  0  0  0  0  0  0  0  0  0
    3.2455    0.1799    0.5705 H   0  0  0  0  0  0  0  0  0  0  0  0
    0.9774    0.0160   -0.3400 O   0  0  0  0  0  0  0  0  0  0  0  0
    2.5816   -0.1161    1.3754 N   0  0  0  0  0  0  0  0  0  0  0  0
  1  2  1  0  0  0  0
  1  9  1  0  0  0  0
  1  7  1  0  0  0  0
  2  4  1  0  0  0  0
  3 10  1  0  0  0  0
  3  5  1  0  0  0  0
  4 13  1  1  0  0  0
  4  3  1  0  0  0  0
  5 16  1  0  0  0  0
  5 15  1  0  0  0  0
  6 19  2  0  0  0  0
  6  5  1  0  0  0  0
  8  1  1  0  0  0  0
 11  3  1  0  0  0  0
 12  2  1  0  0  0  0
 14  2  1  0  0  0  0
 17 19  1  0  0  0  0
 18  4  1  0  0  0  0
 18  6  1  0  0  0  0
M  END
$$$$
end
 OpenBabel10282513463D

 19 19  0  0  1  0  0  0  0  0999 V2000
   -1.1326    0.5300   -2.3476 C   0  0  0  0  0  0  0  0  0  0  0  0
   -0.9479    0.5974    0.1646 C   0  0  2  0  0  0  0  0  0  0  0  0
   -0.6282    2.0824    0.5406 C   0  0  0  0  0  0  0  0  0  0  0  0
   -0.0984    0.0565    1.3638 C   0  0  1  0  0  0  0  0  0  0  0  0
   -0.3122    0.1582   -1.1362 C   0  0  1  0  0  0  0  0  0  0  0  0
    0.4886   -1.8321   -0.1352 C   0  0  0  0  0  3  0  0  0  0  0  0
    0.4984   -1.3156    1.0716 C   0  0  0  0  0  0  0  0  0  0  0  0
   -2.1648    0.1553   -2.2785 H   0  0  0  0  0  0  0  0  0  0  0  0
   -2.0019    0.3989    0.2604 H   0  0  0  0  0  0  0  0  0  0  0  0
   -1.3738    2.7064   -0.4492 H   0  0  0  0  0  0  0  0  0  0  0  0
   -1.1935    1.6054   -2.5253 H   0  0  0  0  0  0  0  0  0  0  0  0
   -1.1874    2.4695    1.3228 H   0  0  0  0  0  0  0  0  0  0  0  0
   -0.6684    0.1159   -3.2526 H   0  0  0  0  0  0  0  0  0  0  0  0
   -0.6714    0.0897    2.3065 H   0  0  0  0  0  0  0  0  0  0  0  0
    0.2316    2.5781    0.1557 H   0  0  0  0  0  0  0  0  0  0  0  0
    0.6695    0.5865   -1.2031 H   0  0  0  0  0  0  0  0  0  0  0  0
    0.9529   -1.8156    1.9063 H   0  0  0  0  0  0  0  0  0  0  0  0
   -0.2198   -1.2984   -1.1469 O   0  0  0  0  0  0  0  0  0  0  0  0
    0.7127    1.2963    1.4036 N   0  0  0  0  0  1  0  0  0  0  0  0
  1  8  1  0  0  0  0
  1  5  1  0  0  0  0
  2  9  1  1  0  0  0
  2  3  1  0  0  0  0
  2  4  1  0  0  0  0
  3 12  1  0  0  0  0
  4 19  1  0  0  0  0
  4 14  1  1  0  0  0
  5 16  1  6  0  0  0
  5  2  1  0  0  0  0
  6  7  2  0  0  0  0
  7  4  1  0  0  0  0
  7 17  1  0  0  0  0
 10  3  1  0  0  0  0
 11  1  1  0  0  0  0
 13  1  1  0  0  0  0
 15  3  1  0  0  0  0
 18  5  1  0  0  0  0
 18  6  1  0  0  0  0
M  END
$$$$
end
 OpenBabel10282513463D

 18 18  0  0  1  0  0  0  0  0999 V2000
   -0.9772   -1.5600    0.4268 C   0  0  0  0  0  0  0  0  0  0  0  0
   -0.4023   -0.9577    1.7662 C   0  0  0  0  0  0  0  0  0  0  0  0
    0.0937   -1.5009   -0.7079 C   0  0  0  0  0  0  0  0  0  0  0  0
    0.1871    0.4216    1.5486 C   0  0  0  0  0  0  0  0  0  0  0  0
    0.6247   -0.0498   -0.8567 C   0  0  1  0  0  0  0  0  0  0  0  0
    1.2659    0.4209    0.4599 C   0  0  0  0  0  0  0  0  0  0  0  0
    1.6160    0.0657   -1.9401 C   0  0  0  0  0  0  0  0  0  0  0  0
   -1.2174   -0.9086    2.4785 H   0  0  0  0  0  0  0  0  0  0  0  0
   -0.3652   -1.8427   -1.6117 H   0  0  0  0  0  0  0  0  0  0  0  0
   -0.5957    1.1420    1.2828 H   0  0  0  0  0  0  0  0  0  0  0  0
   -0.2125    0.6316   -1.0941 H   0  0  0  0  0  0  0  0  0  0  0  0
    0.3462   -1.6647    2.1223 H   0  0  0  0  0  0  0  0  0  0  0  0
    0.6435    0.7655    2.4817 H   0  0  0  0  0  0  0  0  0  0  0  0
    0.8880   -2.1643   -0.4377 H   0  0  0  0  0  0  0  0  0  0  0  0
    1.6832    1.4370    0.3359 H   0  0  0  0  0  0  0  0  0  0  0  0
    2.1109   -0.2233    0.7272 H   0  0  0  0  0  0  0  0  0  0  0  0
   -2.0885   -1.9417    0.2994 O   0  0  0  0  0  0  0  0  0  0  0  0
    2.3764    0.2514   -2.7685 N   0  0  0  0  0  0  0  0  0  0  0  0
  1  2  1  0  0  0  0
  2 12  1  0  0  0  0
  2  8  1  0  0  0  0
  3 14  1  0  0  0  0
  3  1  1  0  0  0  0
  4  2  1  0  0  0  0
  4 13  1  0  0  0  0
  5 11  1  6  0  0  0
  5  3  1  0  0  0  0
  5  6  1  0  0  0  0
  6 16  1  0  0  0  0
  6  4  1  0  0  0  0
  7  5  1  0  0  0  0
  9  3  1  0  0  0  0
 10  4  1  0  0  0  0
 15  6  1  0  0  0  0
 17  1  2  0  0  0  0
 18  7  3  0  0  0  0
M  END
$$$$
end
 OpenBabel10282513463D

 21 22  0  0  1  0  0  0  0  0999 V2000
   -1.8881    0.3088   -1.0626 C   0  0  0  0  0  0  0  0  0  0  0  0
   -0.9432   -0.4184   -0.0923 C   0  0  0  0  0  0  0  0  0  0  0  0
   -0.2441    1.8573   -1.7111 C   0  0  0  0  0  0  0  0  0  0  0  0
    0.1690    0.5164    0.4066 C   0  0  0  0  0  0  0  0  0  0  0  0
    0.8242    1.1755   -0.8384 C   0  0  0  0  0  0  0  0  0  0  0  0
    0.9587   -1.3423    2.0409 C   0  0  0  0  0  0  0  0  0  0  0  0
    1.2205   -0.1108    1.2596 C   0  0  1  0  0  0  0  0  0  0  0  0
   -2.6013   -0.3869   -1.4973 H   0  0  0  0  0  0  0  0  0  0  0  0
   -2.4602    1.0824   -0.5423 H   0  0  0  0  0  0  0  0  0  0  0  0
   -1.5168   -0.8235    0.7529 H   0  0  0  0  0  0  0  0  0  0  0  0
   -0.7251    2.6620   -1.1472 H   0  0  0  0  0  0  0  0  0  0  0  0
   -0.4945   -1.2945   -0.5981 H   0  0  0  0  0  0  0  0  0  0  0  0
   -0.3041    1.3217    1.0004 H   0  0  0  0  0  0  0  0  0  0  0  0
   -0.0236   -1.7550    2.1602 H   0  0  0  0  0  0  0  0  0  0  0  0
    0.2132    2.3082   -2.6007 H   0  0  0  0  0  0  0  0  0  0  0  0
    1.3365    0.4043   -1.4117 H   0  0  0  0  0  0  0  0  0  0  0  0
    1.6531   -1.6561    2.8209 H   0  0  0  0  0  0  0  0  0  0  0  0
    1.5632    1.9052   -0.5321 H   0  0  0  0  0  0  0  0  0  0  0  0
    1.9740    0.5656    1.6133 H   0  0  0  0  0  0  0  0  0  0  0  0
   -1.2114    0.8987   -2.1490 O   0  0  0  0  0  0  0  0  0  0  0  0
    1.6165   -1.3714    0.8330 O   0  0  0  0  0  0  0  0  0  0  0  0
  1  9  1  0  0  0  0
  1  2  1  0  0  0  0
  2  4  1  0  0  0  0
  2 10  1  0  0  0  0
  3 11  1  0  0  0  0
  3  5  1  0  0  0  0
  4 13  1  0  0  0  0
  4  7  1  0  0  0  0
  5 18  1  0  0  0  0
  5  4  1  0  0  0  0
  6 14  1  0  0  0  0
  6 17  1  0  0  0  0
  7 19  1  1  0  0  0
  7  6  1  0  0  0  0
  8  1  1  0  0  0  0
 12  2  1  0  0  0  0
 15  3  1  0  0  0  0
 16  5  1  0  0  0  0
 20  3  1  0  0  0  0
 20  1  1  0  0  0  0
 21  7  1  0  0  0  0
 21  6  1  0  0  0  0
M  END
$$$$
end
 OpenBabel10282513463D

 21 21  0  0  1  0  0  0  0  0999 V2000
   -1.6451    0.4976   -0.7518 C   0  0  0  0  0  0  0  0  0  0  0  0
   -1.4160   -0.4984   -1.8778 C   0  0  0  0  0  0  0  0  0  0  0  0
    0.4023   -0.1529   -0.7620 C   0  0  0  0  0  3  0  0  0  0  0  0
    1.1851   -1.1576    2.0667 C   0  0  0  0  0  0  0  0  0  0  0  0
    1.7530   -0.6115   -0.3729 C   0  0  2  0  0  0  0  0  0  0  0  0
    2.0857   -0.3588    1.0899 C   0  0  0  0  0  0  0  0  0  0  0  0
   -2.5197    0.2687   -0.1109 H   0  0  0  0  0  0  0  0  0  0  0  0
   -1.8648   -0.2284   -2.8160 H   0  0  0  0  0  0  0  0  0  0  0  0
   -1.7462   -1.5183   -1.5973 H   0  0  0  0  0  0  0  0  0  0  0  0
   -1.6965    1.4977   -1.1386 H   0  0  0  0  0  0  0  0  0  0  0  0
    0.1423   -0.9832    1.8670 H   0  0  0  0  0  0  0  0  0  0  0  0
    1.3858   -2.2257    1.9889 H   0  0  0  0  0  0  0  0  0  0  0  0
    1.4120   -0.8454    3.1226 H   0  0  0  0  0  0  0  0  0  0  0  0
    1.8055   -1.7118   -0.5593 H   0  0  0  0  0  0  0  0  0  0  0  0
    1.9926    0.7065    1.3021 H   0  0  0  0  0  0  0  0  0  0  0  0
    2.4240   -0.1163   -2.1980 H   0  0  0  0  0  0  0  0  0  0  0  0
    3.1356   -0.6318    1.2707 H   0  0  0  0  0  0  0  0  0  0  0  0
    3.6764   -0.2346   -1.1242 H   0  0  0  0  0  0  0  0  0  0  0  0
   -0.4636    0.3796    0.0490 O   0  0  0  0  0  0  0  0  0  0  0  0
   -0.0166   -0.5179   -1.9720 O   0  0  0  0  0  0  0  0  0  0  0  0
    2.6845    0.0675   -1.2603 N   0  0  0  0  0  0  0  0  0  0  0  0
  1  7  1  0  0  0  0
  1 19  1  0  0  0  0
  2  9  1  0  0  0  0
  2  1  1  0  0  0  0
  3  5  1  0  0  0  0
  3 19  1  0  0  0  0
  4 13  1  0  0  0  0
  5 14  1  6  0  0  0
  5  6  1  0  0  0  0
  6 17  1  0  0  0  0
  6 15  1  0  0  0  0
  6  4  1  0  0  0  0
  8  2  1  0  0  0  0
 10  1  1  0  0  0  0
 11  4  1  0  0  0  0
 12  4  1  0  0  0  0
 16 21  1  0  0  0  0
 20  2  1  0  0  0  0
 20  3  1  0  0  0  0
 21 18  1  0  0  0  0
 21  5  1  0  0  0  0
M  END
$$$$
end
 OpenBabel10282513463D

 18 18  0  0  0  0  0  0  0  0999 V2000
   -1.1282   -1.3441    0.6848 C   0  0  0  0  0  0  0  0  0  0  0  0
   -0.7611    2.0610   -0.2713 C   0  0  0  0  0  0  0  0  0  0  0  0
    0.0909   -1.1459   -0.1504 C   0  0  0  0  0  0  0  0  0  0  0  0
    0.5980    1.4277    0.1288 C   0  0  0  0  0  0  0  0  0  0  0  0
    0.7871   -2.1335   -0.8341 C   0  0  0  0  0  0  0  0  0  0  0  0
    0.8119    0.0269   -0.4054 C   0  0  0  0  0  0  0  0  0  0  0  0
   -2.0484   -1.5403    0.1235 H   0  0  0  0  0  0  0  0  0  0  0  0
   -1.5768    1.4028    0.0359 H   0  0  0  0  0  0  0  0  0  0  0  0
   -1.3078   -0.4435    1.3198 H   0  0  0  0  0  0  0  0  0  0  0  0
   -1.0148   -2.1841    1.3767 H   0  0  0  0  0  0  0  0  0  0  0  0
   -0.8745    3.0133    0.1978 H   0  0  0  0  0  0  0  0  0  0  0  0
   -0.8203    2.1830   -1.3548 H   0  0  0  0  0  0  0  0  0  0  0  0
    0.6348   -3.2087   -0.8204 H   0  0  0  0  0  0  0  0  0  0  0  0
    0.6719    1.4241    1.2047 H   0  0  0  0  0  0  0  0  0  0  0  0
    1.4039    2.0417   -0.2632 H   0  0  0  0  0  0  0  0  0  0  0  0
    2.4565   -1.9467   -2.0831 H   0  0  0  0  0  0  0  0  0  0  0  0
    1.7623   -1.5473   -1.5276 N   0  0  0  0  0  0  0  0  0  0  0  0
    1.7790   -0.2297   -1.3218 N   0  0  0  0  0  0  0  0  0  0  0  0
  1  9  1  0  0  0  0
  1 10  1  0  0  0  0
  2  8  1  0  0  0  0
  2  4  1  0  0  0  0
  2 11  1  0  0  0  0
  3  1  1  0  0  0  0
  4 14  1  0  0  0  0
  5 13  1  0  0  0  0
  5  3  2  0  0  0  0
  6  3  1  0  0  0  0
  6  4  1  0  0  0  0
  7  1  1  0  0  0  0
 12  2  1  0  0  0  0
 15  4  1  0  0  0  0
 16 17  1  0  0  0  0
 17 18  1  0  0  0  0
 17  5  1  0  0  0  0
 18  6  2  0  0  0  0
M  END
$$$$
end
 OpenBabel10282513463D

 21 22  0  0  1  0  0  0  0  0999 V2000
   -1.4267    1.2937   -0.5577 C   0  0  0  0  0  0  0  0  0  0  0  0
   -1.1076   -1.2427   -0.0249 C   0  0  0  0  0  0  0  0  0  0  0  0
   -0.7667    0.2273    0.3386 C   0  0  1  0  0  0  0  0  0  0  0  0
    0.3527   -1.7176    1.9133 C   0  0  0  0  0  0  0  0  0  0  0  0
    1.0397   -1.1418    0.6942 C   0  0  1  0  0  0  0  0  0  0  0  0
    1.4614    1.2704    0.6940 C   0  0  0  0  0  0  0  0  0  0  0  0
   -2.4200    0.9396   -0.7891 H   0  0  0  0  0  0  0  0  0  0  0  0
   -2.1187   -1.5181    0.2548 H   0  0  0  0  0  0  0  0  0  0  0  0
   -2.0956    2.5091    0.8304 H   0  0  0  0  0  0  0  0  0  0  0  0
   -1.0109   -1.3618   -1.1230 H   0  0  0  0  0  0  0  0  0  0  0  0
   -1.0627    0.3911    1.3848 H   0  0  0  0  0  0  0  0  0  0  0  0
   -0.8835    1.4026   -1.4819 H   0  0  0  0  0  0  0  0  0  0  0  0
   -0.3491   -1.1354    2.5220 H   0  0  0  0  0  0  0  0  0  0  0  0
    0.8829   -2.4811    2.4706 H   0  0  0  0  0  0  0  0  0  0  0  0
    1.2581    1.4509    1.7629 H   0  0  0  0  0  0  0  0  0  0  0  0
    1.1981    2.1662    0.1267 H   0  0  0  0  0  0  0  0  0  0  0  0
    2.0355   -1.4920    0.4509 H   0  0  0  0  0  0  0  0  0  0  0  0
    2.5222    1.0661    0.6013 H   0  0  0  0  0  0  0  0  0  0  0  0
   -1.5160    2.6018    0.0265 O   0  0  0  0  0  0  0  0  0  0  0  0
   -0.0586   -2.1109    0.5404 N   0  0  2  0  0  0  0  0  0  0  0  0
    0.6805    0.1651    0.1806 N   0  0  0  0  0  0  0  0  0  0  0  0
  1 19  1  0  0  0  0
  1  3  1  0  0  0  0
  2  8  1  0  0  0  0
  2  3  1  0  0  0  0
  3 11  1  1  0  0  0
  4 14  1  0  0  0  0
  4 13  1  0  0  0  0
  5 17  1  6  0  0  0
  5  4  1  0  0  0  0
  6 15  1  0  0  0  0
  7  1  1  0  0  0  0
 10  2  1  0  0  0  0
 12  1  1  0  0  0  0
 16  6  1  0  0  0  0
 18  6  1  0  0  0  0
 19  9  1  0  0  0  0
 20  2  1  6  0  0  0
 20  5  1  0  0  0  0
 20  4  1  0  0  0  0
 21  3  1  0  0  0  0
 21  6  1  0  0  0  0
 21  5  1  0  0  0  0
M  END
$$$$
end
 OpenBabel10282513463D

 23 23  0  0  1  0  0  0  0  0999 V2000
   -2.1740   -1.4433    1.2114 C   0  0  0  0  0  0  0  0  0  0  0  0
   -1.1767   -0.3246    1.0790 C   0  0  2  0  0  0  0  0  0  0  0  0
   -0.7638   -0.0797   -0.4013 C   0  0  0  0  0  0  0  0  0  0  0  0
    0.0552   -0.6632    1.9328 C   0  0  0  0  0  0  0  0  0  0  0  0
    0.3229    1.0082   -0.5145 C   0  0  2  0  0  0  0  0  0  0  0  0
    0.7735    1.2678   -1.9469 C   0  0  0  0  0  0  0  0  0  0  0  0
    1.1709    0.3548    1.8181 C   0  0  0  0  0  0  0  0  0  0  0  0
    1.5234    0.6811    0.3877 C   0  0  0  0  0  0  0  0  0  0  0  0
   -3.1043   -1.2543    0.7209 H   0  0  0  0  0  0  0  0  0  0  0  0
   -2.4279   -1.5936    2.2666 H   0  0  0  0  0  0  0  0  0  0  0  0
   -1.7916   -2.3831    0.8458 H   0  0  0  0  0  0  0  0  0  0  0  0
   -1.6192    0.2035   -0.9949 H   0  0  0  0  0  0  0  0  0  0  0  0
   -1.6077    0.6023    1.4582 H   0  0  0  0  0  0  0  0  0  0  0  0
   -0.3393   -0.9951   -0.8368 H   0  0  0  0  0  0  0  0  0  0  0  0
   -0.2180   -0.7956    2.9719 H   0  0  0  0  0  0  0  0  0  0  0  0
   -0.1260    1.9561   -0.1227 H   0  0  0  0  0  0  0  0  0  0  0  0
   -0.0555    1.5714   -2.5940 H   0  0  0  0  0  0  0  0  0  0  0  0
    0.4930   -1.6316    1.6106 H   0  0  0  0  0  0  0  0  0  0  0  0
    1.2251    0.3733   -2.3664 H   0  0  0  0  0  0  0  0  0  0  0  0
    1.5219    2.0664   -2.0077 H   0  0  0  0  0  0  0  0  0  0  0  0
    2.0119   -0.2373   -0.0421 H   0  0  0  0  0  0  0  0  0  0  0  0
    2.2365    1.4952    0.3959 H   0  0  0  0  0  0  0  0  0  0  0  0
    1.7976    0.7265    2.7315 O   0  0  0  0  0  0  0  0  0  0  0  0
  1 10  1  0  0  0  0
  2  1  1  0  0  0  0
  2 13  1  1  0  0  0
  2  4  1  0  0  0  0
  3  2  1  0  0  0  0
  4 15  1  0  0  0  0
  5  3  1  0  0  0  0
  5 16  1  1  0  0  0
  5  8  1  0  0  0  0
  6  5  1  0  0  0  0
  7  4  1  0  0  0  0
  7 23  2  0  0  0  0
  8 22  1  0  0  0  0
  8  7  1  0  0  0  0
  9  1  1  0  0  0  0
 11  1  1  0  0  0  0
 12  3  1  0  0  0  0
 14  3  1  0  0  0  0
 17  6  1  0  0  0  0
 18  4  1  0  0  0  0
 19  6  1  0  0  0  0
 20  6  1  0  0  0  0
 21  8  1  0  0  0  0
M  END
$$$$
end
 OpenBabel10282513463D

 17 18  0  0  1  0  0  0  0  0999 V2000
   -1.0553   -0.5412   -0.2587 C   0  0  0  0  0  2  0  0  0  0  0  0
   -0.8787    0.9206   -0.0414 C   0  0  0  0  0  0  0  0  0  0  0  0
    0.0448   -1.2596   -0.5473 C   0  0  2  0  0  0  0  0  0  0  0  0
    0.6808   -1.7907    0.7007 C   0  0  0  0  0  0  0  0  0  0  0  0
    1.2781    0.2825   -0.3258 C   0  0  1  0  0  0  0  0  0  0  0  0
    1.5647   -0.5301    0.9077 C   0  0  2  0  0  3  0  0  0  0  0  0
   -2.7840    1.5347   -0.4005 H   0  0  0  0  0  0  0  0  0  0  0  0
   -1.8022    2.6453    0.3763 H   0  0  0  0  0  0  0  0  0  0  0  0
   -0.4399   -2.0155   -1.0787 H   0  0  0  0  0  0  0  0  0  0  0  0
   -0.0246   -1.9456    1.5033 H   0  0  0  0  0  0  0  0  0  0  0  0
    1.1518   -2.6923    0.3056 H   0  0  0  0  0  0  0  0  0  0  0  0
    2.2349    0.6780   -0.7369 H   0  0  0  0  0  0  0  0  0  0  0  0
    2.5575   -1.8608    1.8869 H   0  0  0  0  0  0  0  0  0  0  0  0
    0.9843   -0.6914   -1.2968 O   0  0  0  0  0  0  0  0  0  0  0  0
   -2.0318    1.6408    0.2861 N   0  0  0  0  0  0  0  0  0  0  0  0
    0.2963    1.3897   -0.1354 N   0  0  0  0  0  0  0  0  0  0  0  0
    2.1540   -1.2894    1.2626 N   0  0  0  0  0  2  0  0  0  0  0  0
  1  2  1  0  0  0  0
  2 15  1  0  0  0  0
  3  9  1  6  0  0  0
  3  1  1  0  0  0  0
  3  4  1  0  0  0  0
  4  6  1  0  0  0  0
  4 10  1  0  0  0  0
  5 12  1  6  0  0  0
  5 16  1  0  0  0  0
  5  6  1  0  0  0  0
  6 17  1  6  0  0  0
  7 15  1  0  0  0  0
 11  4  1  0  0  0  0
 14  3  1  0  0  0  0
 14  5  1  0  0  0  0
 15  8  1  0  0  0  0
 16  2  2  0  0  0  0
 17 13  1  0  0  0  0
M  END
$$$$
end
 OpenBabel10282513463D

 21 21  0  0  1  0  0  0  0  0999 V2000
   -2.0204   -1.9251    0.5974 C   0  0  0  0  0  0  0  0  0  0  0  0
   -0.8441   -1.1991    1.2624 C   0  0  0  0  0  0  0  0  0  0  0  0
   -0.0963    0.3184   -0.7203 C   0  0  0  0  0  0  0  0  0  0  0  0
    0.2764   -0.7162    0.3667 C   0  0  1  0  0  0  0  0  0  0  0  0
    1.3008    0.7450   -1.2699 C   0  0  0  0  0  0  0  0  0  0  0  0
    1.4263    0.0059    1.0854 C   0  0  1  0  0  0  0  0  0  0  0  0
    2.2554    0.6105   -0.0767 C   0  0  0  0  0  0  0  0  0  0  0  0
   -2.8144   -2.1227    1.3100 H   0  0  0  0  0  0  0  0  0  0  0  0
   -2.4396   -1.3386   -0.2575 H   0  0  0  0  0  0  0  0  0  0  0  0
   -1.6605   -2.9002    0.1812 H   0  0  0  0  0  0  0  0  0  0  0  0
   -0.7434   -0.0582   -1.5194 H   0  0  0  0  0  0  0  0  0  0  0  0
   -0.6263    1.1431   -0.2595 H   0  0  0  0  0  0  0  0  0  0  0  0
    0.2879    0.6395    2.4105 H   0  0  0  0  0  0  0  0  0  0  0  0
    0.6541   -1.6209   -0.1274 H   0  0  0  0  0  0  0  0  0  0  0  0
    1.2975    1.7383   -1.6987 H   0  0  0  0  0  0  0  0  0  0  0  0
    1.5910    0.0643   -2.0738 H   0  0  0  0  0  0  0  0  0  0  0  0
    1.9865   -0.7114    1.6791 H   0  0  0  0  0  0  0  0  0  0  0  0
    2.6678    1.5719    0.2104 H   0  0  0  0  0  0  0  0  0  0  0  0
    3.1365   -0.0597   -0.2933 H   0  0  0  0  0  0  0  0  0  0  0  0
   -0.8249   -1.0224    2.4447 O   0  0  0  0  0  0  0  0  0  0  0  0
    0.9705    1.0622    1.9002 O   0  0  0  0  0  0  0  0  0  0  0  0
  1  2  1  0  0  0  0
  1  8  1  0  0  0  0
  2 20  2  0  0  0  0
  3 12  1  0  0  0  0
  3  4  1  0  0  0  0
  4 14  1  6  0  0  0
  4  6  1  0  0  0  0
  4  2  1  0  0  0  0
  5  3  1  0  0  0  0
  5  7  1  0  0  0  0
  6 17  1  1  0  0  0
  6 21  1  0  0  0  0
  7 18  1  0  0  0  0
  7  6  1  0  0  0  0
  9  1  1  0  0  0  0
 10  1  1  0  0  0  0
 11  3  1  0  0  0  0
 15  5  1  0  0  0  0
 16  5  1  0  0  0  0
 19  7  1  0  0  0  0
 21 13  1  0  0  0  0
M  END
$$$$
end
 OpenBabel10282513463D

 23 23  0  0  1  0  0  0  0  0999 V2000
   -2.4447    1.4897    1.2427 C   0  0  0  0  0  0  0  0  0  0  0  0
   -0.1785    1.8888    0.8165 C   0  0  0  0  0  0  0  0  0  0  0  0
    0.0617   -2.1619   -0.8963 C   0  0  0  0  0  0  0  0  0  0  0  0
    0.5083   -0.7755   -1.2819 C   0  0  1  0  0  0  0  0  0  0  0  0
    0.9664    1.5584   -0.1368 C   0  0  1  0  0  0  0  0  0  0  0  0
    1.2459    0.0671   -0.2697 C   0  0  2  0  0  0  0  0  0  0  0  0
    1.9852   -0.4630   -1.4420 C   0  0  0  0  0  0  0  0  0  0  0  0
   -3.3226    0.9581    0.8497 H   0  0  0  0  0  0  0  0  0  0  0  0
   -2.6765    2.5766    1.2958 H   0  0  0  0  0  0  0  0  0  0  0  0
   -2.2525    1.1289    2.2550 H   0  0  0  0  0  0  0  0  0  0  0  0
   -0.8699   -2.1130   -0.3147 H   0  0  0  0  0  0  0  0  0  0  0  0
   -0.3660    2.1359   -1.4556 H   0  0  0  0  0  0  0  0  0  0  0  0
   -0.1322   -2.7691   -1.7666 H   0  0  0  0  0  0  0  0  0  0  0  0
   -0.1816   -0.2581   -1.9182 H   0  0  0  0  0  0  0  0  0  0  0  0
   -0.3091    2.9578    0.8679 H   0  0  0  0  0  0  0  0  0  0  0  0
    0.0926    1.5298    1.8341 H   0  0  0  0  0  0  0  0  0  0  0  0
    0.8084   -2.6847   -0.3147 H   0  0  0  0  0  0  0  0  0  0  0  0
    1.4573   -0.4208    0.6914 H   0  0  0  0  0  0  0  0  0  0  0  0
    1.8973    2.0270    0.1997 H   0  0  0  0  0  0  0  0  0  0  0  0
    2.2701    0.2827   -2.2135 H   0  0  0  0  0  0  0  0  0  0  0  0
    2.6826   -1.2775   -1.3371 H   0  0  0  0  0  0  0  0  0  0  0  0
   -1.3762    1.2226    0.3381 O   0  0  0  0  0  0  0  0  0  0  0  0
    0.6418    2.1793   -1.3784 O   0  0  0  0  0  0  0  0  0  0  0  0
  1  9  1  0  0  0  0
  1 10  1  0  0  0  0
  2 15  1  0  0  0  0
  2 16  1  0  0  0  0
  3 11  1  0  0  0  0
  3 17  1  0  0  0  0
  4 14  1  6  0  0  0
  4  3  1  0  0  0  0
  4  6  1  0  0  0  0
  5 19  1  1  0  0  0
  5  2  1  0  0  0  0
  6  5  1  0  0  0  0
  6 18  1  1  0  0  0
  7 21  1  0  0  0  0
  7  4  1  0  0  0  0
  7  6  1  0  0  0  0
  8  1  1  0  0  0  0
 12 23  1  0  0  0  0
 13  3  1  0  0  0  0
 20  7  1  0  0  0  0
 22  2  1  0  0  0  0
 22  1  1  0  0  0  0
 23  5  1  0  0  0  0
M  END
$$$$
end
 OpenBabel10282513463D

 21 19  0  0  1  0  0  0  0  0999 V2000
   -1.0658   -0.1030   -0.6535 C   0  0  0  0  0  0  0  0  0  0  0  0
   -0.9782    0.5082    0.7527 C   0  0  1  0  0  0  0  0  0  0  0  0
   -0.6699   -0.5065    1.8833 C   0  0  0  0  0  0  0  0  0  0  0  0
    0.6231   -1.3122    1.6803 C   0  0  0  0  0  0  0  0  0  0  0  0
    0.2979    0.2376   -1.3089 C   0  0  0  0  0  3  0  0  0  0  0  0
    2.3098    2.9206    0.1521 C   0  0  0  0  0  0  0  0  0  0  0  0
   -1.8646    0.3515   -1.2310 H   0  0  0  0  0  0  0  0  0  0  0  0
   -1.8825    1.0601    1.0019 H   0  0  0  0  0  0  0  0  0  0  0  0
   -1.5109   -1.1797    1.9632 H   0  0  0  0  0  0  0  0  0  0  0  0
   -1.2409   -1.1561   -0.6276 H   0  0  0  0  0  0  0  0  0  0  0  0
   -0.5970    0.0961    2.7753 H   0  0  0  0  0  0  0  0  0  0  0  0
    0.2094    0.6340   -2.3230 H   0  0  0  0  0  0  0  0  0  0  0  0
    0.5976   -1.9035    0.7727 H   0  0  0  0  0  0  0  0  0  0  0  0
    0.7760   -1.9483    2.5356 H   0  0  0  0  0  0  0  0  0  0  0  0
    0.9915   -0.5926   -1.2851 H   0  0  0  0  0  0  0  0  0  0  0  0
    1.5093   -0.6631    1.6237 H   0  0  0  0  0  0  0  0  0  0  0  0
    1.5165    3.4629    0.6532 H   0  0  0  0  0  0  0  0  0  0  0  0
    2.8329    2.5164    1.1067 H   0  0  0  0  0  0  0  0  0  0  0  0
    3.0434    3.5777   -0.3429 H   0  0  0  0  0  0  0  0  0  0  0  0
    0.0581    1.5412    0.6883 O   0  0  0  0  0  1  0  0  0  0  0  0
    1.9255    1.9157   -0.7112 N   0  0  0  0  0  1  0  0  0  0  0  0
  1 10  1  0  0  0  0
  1  2  1  0  0  0  0
  2  8  1  1  0  0  0
  2  3  1  0  0  0  0
  3  9  1  0  0  0  0
  3 11  1  0  0  0  0
  4  3  1  0  0  0  0
  4 14  1  0  0  0  0
  5 15  1  0  0  0  0
  5  1  1  0  0  0  0
  6 17  1  0  0  0  0
  6 18  1  0  0  0  0
  7  1  1  0  0  0  0
 12  5  1  0  0  0  0
 13  4  1  0  0  0  0
 16  4  1  0  0  0  0
 19  6  1  0  0  0  0
 20  2  1  0  0  0  0
 21  6  1  0  0  0  0
M  END
$$$$
end
 OpenBabel10282513463D

 15 17  0  0  1  0  0  0  0  0999 V2000
   -1.2135   -0.0332   -0.3475 C   0  0  2  0  0  0  0  0  0  0  0  0
   -0.7798    0.5446    1.0030 C   0  0  1  0  0  0  0  0  0  0  0  0
   -0.3018   -0.8404    0.5474 C   0  0  2  0  0  0  0  0  0  0  0  0
    0.4815    1.1286   -1.4343 C   0  0  0  0  0  0  0  0  0  0  0  0
    1.1698   -0.6391    0.2039 C   0  0  0  0  0  0  0  0  0  0  0  0
    1.1733    0.8904   -0.0859 C   0  0  2  0  0  0  0  0  0  0  0  0
   -2.2398   -0.3706   -0.4347 H   0  0  0  0  0  0  0  0  0  0  0  0
   -1.4441    0.7253    1.8046 H   0  0  0  0  0  0  0  0  0  0  0  0
   -0.6289   -1.7016    1.0586 H   0  0  0  0  0  0  0  0  0  0  0  0
    1.4935   -1.2470   -0.6163 H   0  0  0  0  0  0  0  0  0  0  0  0
    1.8139   -0.8591    1.0726 H   0  0  0  0  0  0  0  0  0  0  0  0
    2.1379    1.3905   -0.0834 H   0  0  0  0  0  0  0  0  0  0  0  0
   -0.7606    0.5809   -1.5008 O   0  0  0  0  0  0  0  0  0  0  0  0
    0.2979    1.4328    0.9129 O   0  0  0  0  0  0  0  0  0  0  0  0
    0.9285    1.7796   -2.3286 O   0  0  0  0  0  0  0  0  0  0  0  0
  1  7  1  6  0  0  0
  1  3  1  0  0  0  0
  1  2  1  0  0  0  0
  2  8  1  1  0  0  0
  3  2  1  0  0  0  0
  3  9  1  1  0  0  0
  4  6  1  0  0  0  0
  5  3  1  0  0  0  0
  5 11  1  0  0  0  0
  6 12  1  1  0  0  0
  6  5  1  0  0  0  0
  6 14  1  0  0  0  0
 10  5  1  0  0  0  0
 13  4  1  0  0  0  0
 13  1  1  0  0  0  0
 14  2  1  0  0  0  0
 15  4  2  0  0  0  0
M  END
$$$$
end
 OpenBabel10282513463D

 14 14  0  0  0  0  0  0  0  0999 V2000
   -0.6424    0.7983   -1.1480 C   0  0  0  0  0  0  0  0  0  0  0  0
    0.0874    0.1607   -0.1554 C   0  0  0  0  0  0  0  0  0  0  0  0
    0.0074    1.4196   -2.1667 C   0  0  0  0  0  0  0  0  0  0  0  0
    1.4870    0.1377   -0.2301 C   0  0  0  0  0  3  0  0  0  0  0  0
    2.0426    0.7840   -1.3583 C   0  0  0  0  0  0  0  0  0  0  0  0
   -1.0577   -1.6444    2.1429 H   0  0  0  0  0  0  0  0  0  0  0  0
   -0.5708    1.9031   -2.9618 H   0  0  0  0  0  0  0  0  0  0  0  0
    0.5173   -1.4700    1.7773 H   0  0  0  0  0  0  0  0  0  0  0  0
    2.1415   -0.3293    0.4553 H   0  0  0  0  0  0  0  0  0  0  0  0
    3.1319    0.7764   -1.5124 H   0  0  0  0  0  0  0  0  0  0  0  0
   -0.7336   -0.3393    0.7993 O   0  0  0  0  0  0  0  0  0  0  0  0
   -0.3389   -1.0723    1.8558 N   0  0  0  0  0  0  0  0  0  0  0  0
    1.3315    1.4229   -2.3166 N   0  0  0  0  0  4  0  0  0  0  0  0
   -1.9109    0.6246   -1.1010 F   0  0  0  0  0  0  0  0  0  0  0  0
  1 14  1  0  0  0  0
  1  2  2  0  0  0  0
  2 11  1  0  0  0  0
  3  1  1  0  0  0  0
  4  2  1  0  0  0  0
  4  9  1  0  0  0  0
  5  4  1  0  0  0  0
  7  3  1  0  0  0  0
  8 12  1  0  0  0  0
 10  5  1  0  0  0  0
 11 12  1  0  0  0  0
 12  6  1  0  0  0  0
 13  3  2  0  0  0  0
 13  5  2  0  0  0  0
M  END
$$$$
end
 OpenBabel10282513463D

 12 13  0  0  0  0  0  0  0  0999 V2000
   -0.3830   -0.0113    0.2804 C   0  0  0  0  0  0  0  0  0  0  0  0
   -0.5873    0.3868   -2.3134 C   0  0  0  0  0  0  0  0  0  0  0  0
    0.1094   -0.3196    1.5845 C   0  0  0  0  0  0  0  0  0  0  0  0
    0.7056    0.0371   -0.5833 C   0  0  0  0  0  0  0  0  0  0  0  0
    1.4522   -0.4333    1.4323 C   0  0  0  0  0  3  0  0  0  0  0  0
   -0.8043    0.5317   -3.3613 H   0  0  0  0  0  0  0  0  0  0  0  0
   -0.4771   -0.4893    2.4531 H   0  0  0  0  0  0  0  0  0  0  0  0
    2.2330   -0.6607    2.1228 H   0  0  0  0  0  0  0  0  0  0  0  0
   -1.6491    0.3750   -1.5493 O   0  0  0  0  0  0  0  0  0  0  0  0
   -1.6064    0.1595   -0.1372 O   0  0  0  0  0  0  0  0  0  0  0  0
    1.8589   -0.1912    0.1534 O   0  0  0  0  0  0  0  0  0  0  0  0
    0.6344    0.2614   -1.8644 N   0  0  0  0  0  4  0  0  0  0  0  0
  1  3  2  0  0  0  0
  2 12  2  0  0  0  0
  2  9  1  0  0  0  0
  3  7  1  0  0  0  0
  4 11  1  0  0  0  0
  4  1  1  0  0  0  0
  5  3  1  0  0  0  0
  5  8  1  0  0  0  0
  6  2  1  0  0  0  0
  9 10  1  0  0  0  0
 10  1  1  0  0  0  0
 11  5  1  0  0  0  0
 12  4  2  0  0  0  0
M  END
$$$$
end
 OpenBabel10282513463D

 19 19  0  0  1  0  0  0  0  0999 V2000
   -1.5936    0.1268   -0.9503 C   0  0  0  0  0  3  0  0  0  0  0  0
   -1.0059   -1.0208   -0.1107 C   0  0  2  0  0  0  0  0  0  0  0  0
   -0.8717   -0.7676    1.4389 C   0  0  0  0  0  0  0  0  0  0  0  0
   -0.5802    0.7404   -1.7096 C   0  0  0  0  0  0  0  0  0  0  0  0
    0.4501   -1.0456   -0.5923 C   0  0  1  0  0  3  0  0  0  0  0  0
    0.5781   -0.3688    1.6767 C   0  0  0  0  0  0  0  0  0  0  0  0
    0.6515    0.0156   -1.5424 C   0  0  0  0  0  3  0  0  0  0  0  0
    1.3635   -1.1890    0.6180 C   0  0  0  0  0  0  0  0  0  0  0  0
   -2.6317    0.1600   -1.1507 H   0  0  0  0  0  0  0  0  0  0  0  0
   -1.5384   -1.9549   -0.2985 H   0  0  0  0  0  0  0  0  0  0  0  0
   -1.5679   -0.0239    1.8095 H   0  0  0  0  0  0  0  0  0  0  0  0
   -1.0822   -1.6868    1.9834 H   0  0  0  0  0  0  0  0  0  0  0  0
   -0.9151    0.8188   -4.6411 H   0  0  0  0  0 15  0  0  0  0  0  0
    0.7356    0.6990    1.4834 H   0  0  0  0  0  0  0  0  0  0  0  0
    0.9212   -0.5764    2.6899 H   0  0  0  0  0  0  0  0  0  0  0  0
    1.4067   -2.2257    0.9148 H   0  0  0  0  0  0  0  0  0  0  0  0
    1.5939    0.2724   -1.9160 H   0  0  0  0  0  0  0  0  0  0  0  0
    2.3674   -0.8272    0.4400 H   0  0  0  0  0  0  0  0  0  0  0  0
   -0.6358    1.7667   -2.3992 O   0  0  0  0  0  0  0  0  0  0  0  0
  1  2  1  0  0  0  0
  2 10  1  6  0  0  0
  2  3  1  0  0  0  0
  3  6  1  0  0  0  0
  3 11  1  0  0  0  0
  3 12  1  0  0  0  0
  4  7  1  0  0  0  0
  4  1  1  0  0  0  0
  5  7  1  1  0  0  0
  5  2  1  0  0  0  0
  5  8  1  0  0  0  0
  6 15  1  0  0  0  0
  8 16  1  0  0  0  0
  8  6  1  0  0  0  0
  9  1  1  0  0  0  0
 14  6  1  0  0  0  0
 17  7  1  0  0  0  0
 18  8  1  0  0  0  0
 19  4  2  0  0  0  0
M  END
$$$$
end
 OpenBabel10282513463D

 17 17  0  0  1  0  0  0  0  0999 V2000
   -1.2964   -0.5482   -0.8662 C   0  0  0  0  0  0  0  0  0  0  0  0
    0.0832    0.7836    0.1491 C   0  0  2  0  0  3  0  0  0  0  0  0
    1.0194   -1.0195    1.6960 C   0  0  0  0  0  0  0  0  0  0  0  0
    2.4215   -0.4525    1.7324 C   0  0  0  0  0  0  0  0  0  0  0  0
   -2.0986   -0.9118   -1.4856 H   0  0  0  0  0  0  0  0  0  0  0  0
   -2.1120    1.6133   -1.9709 H   0  0  0  0  0  0  0  0  0  0  0  0
    0.3623    2.6056    0.1533 H   0  0  0  0  0  0  0  0  0  0  0  0
    0.5248   -0.8481    2.6734 H   0  0  0  0  0  0  0  0  0  0  0  0
    1.0384   -2.1002    1.5702 H   0  0  0  0  0  0  0  0  0  0  0  0
    2.3701    0.6610    1.7926 H   0  0  0  0  0  0  0  0  0  0  0  0
    2.9646   -0.7032    0.8402 H   0  0  0  0  0  0  0  0  0  0  0  0
    2.9920   -0.8409    2.5815 H   0  0  0  0  0  0  0  0  0  0  0  0
   -1.4228    1.9185   -1.2741 O   0  0  0  0  0  0  0  0  0  0  0  0
    0.7043    1.8188    0.5941 O   0  0  0  0  0  0  0  0  0  0  0  0
   -0.8712    0.7864   -0.8252 N   0  0  0  0  0  0  0  0  0  0  0  0
   -0.6614   -1.3206    0.0115 N   0  0  0  0  0  0  0  0  0  0  0  0
    0.1999   -0.4684    0.6329 N   0  0  0  0  0  0  0  0  0  0  0  0
  1 15  1  0  0  0  0
  1 16  2  0  0  0  0
  2 14  1  1  0  0  0
  2 17  1  0  0  0  0
  3  4  1  0  0  0  0
  3  8  1  0  0  0  0
  4 10  1  0  0  0  0
  4 12  1  0  0  0  0
  5  1  1  0  0  0  0
  6 13  1  0  0  0  0
  7 14  1  0  0  0  0
  9  3  1  0  0  0  0
 11  4  1  0  0  0  0
 13 15  1  0  0  0  0
 15  2  1  0  0  0  0
 16 17  1  0  0  0  0
 17  3  1  0  0  0  0
M  END
$$$$
end
 OpenBabel10282513463D

 17 17  0  0  1  0  0  0  0  0999 V2000
   -1.4812   -1.1078   -0.5399 C   0  0  0  0  0  0  0  0  0  0  0  0
   -1.3788    1.8195   -0.1415 C   0  0  0  0  0  0  0  0  0  0  0  0
   -0.1307   -0.4171   -0.5585 C   0  0  0  0  0  0  0  0  0  0  0  0
   -0.0882    1.0780   -0.1516 C   0  0  1  0  0  0  0  0  0  0  0  0
    0.4183    0.1388   -1.8807 C   0  0  0  0  0  0  0  0  0  0  0  0
    0.8929   -1.3326    0.1980 C   0  0  0  0  0  0  0  0  0  0  0  0
   -2.2126   -0.6090   -1.1910 H   0  0  0  0  0  0  0  0  0  0  0  0
   -1.9166   -1.1417    0.4615 H   0  0  0  0  0  0  0  0  0  0  0  0
   -1.3939   -2.1634   -0.8934 H   0  0  0  0  0  0  0  0  0  0  0  0
   -0.3287    0.1869   -2.6820 H   0  0  0  0  0  0  0  0  0  0  0  0
    0.5143   -1.6280    1.1619 H   0  0  0  0  0  0  0  0  0  0  0  0
    0.4750    1.2669    0.7420 H   0  0  0  0  0  0  0  0  0  0  0  0
    1.0850   -2.2508   -0.3721 H   0  0  0  0  0  0  0  0  0  0  0  0
    1.3676   -0.3024   -2.2517 H   0  0  0  0  0  0  0  0  0  0  0  0
    1.8478   -0.8258    0.3187 H   0  0  0  0  0  0  0  0  0  0  0  0
    0.6836    1.4524   -1.3198 O   0  0  0  0  0  0  0  0  0  0  0  0
   -2.3657    2.4088   -0.2257 N   0  0  0  0  0  0  0  0  0  0  0  0
  1  8  1  0  0  0  0
  3  1  1  0  0  0  0
  3  4  1  0  0  0  0
  3  6  1  0  0  0  0
  4  2  1  0  0  0  0
  4 12  1  1  0  0  0
  5 16  1  0  0  0  0
  5  3  1  0  0  0  0
  6 15  1  0  0  0  0
  6 11  1  0  0  0  0
  7  1  1  0  0  0  0
  9  1  1  0  0  0  0
 10  5  1  0  0  0  0
 13  6  1  0  0  0  0
 14  5  1  0  0  0  0
 16  4  1  0  0  0  0
 17  2  3  0  0  0  0
M  END
$$$$
end
 OpenBabel10282513463D

 13 13  0  0  0  0  0  0  0  0999 V2000
   -0.8801   -0.0035   -1.0656 C   0  0  0  0  0  0  0  0  0  0  0  0
   -0.5746    1.7992    0.3732 C   0  0  0  0  0  0  0  0  0  0  0  0
    0.1474    0.6110    0.9726 C   0  0  0  0  0  0  0  0  0  0  0  0
    0.3012   -1.7462    0.2164 C   0  0  0  0  0  0  0  0  0  0  0  0
   -1.6981    1.8836   -1.4785 H   0  0  0  0  0  0  0  0  0  0  0  0
   -0.1909    0.4157    2.0001 H   0  0  0  0  0  0  0  0  0  0  0  0
   -0.0569   -2.4313   -0.5743 H   0  0  0  0  0  0  0  0  0  0  0  0
    1.2200    0.8000    1.0127 H   0  0  0  0  0  0  0  0  0  0  0  0
   -1.2584   -0.6372   -2.0315 O   0  0  0  0  0  0  0  0  0  0  0  0
   -0.6132    2.9184    0.7678 O   0  0  0  0  0  0  0  0  0  0  0  0
    0.9168   -2.0694    1.2092 O   0  0  0  0  0  0  0  0  0  0  0  0
   -1.1809    1.3439   -0.8207 N   0  0  0  0  0  0  0  0  0  0  0  0
   -0.1408   -0.4377    0.0595 N   0  0  0  0  0  0  0  0  0  0  0  0
  1 12  1  0  0  0  0
  1 13  1  0  0  0  0
  2 10  2  0  0  0  0
  2  3  1  0  0  0  0
  3  8  1  0  0  0  0
  3  6  1  0  0  0  0
  4 11  2  0  0  0  0
  5 12  1  0  0  0  0
  7  4  1  0  0  0  0
  9  1  2  0  0  0  0
 12  2  1  0  0  0  0
 13  4  1  0  0  0  0
 13  3  1  0  0  0  0
M  END
$$$$
end
 OpenBabel10282513463D

 21 21  0  0  1  0  0  0  0  0999 V2000
   -0.7579   -0.1363    0.1588 C   0  0  2  0  0  0  0  0  0  0  0  0
   -0.6349   -0.1520    1.7096 C   0  0  0  0  0  0  0  0  0  0  0  0
    0.6083    0.6525   -1.8392 C   0  0  0  0  0  0  0  0  0  0  0  0
    0.4278    0.6914   -0.3115 C   0  0  2  0  0  0  0  0  0  0  0  0
    0.8804   -0.2314    1.9008 C   0  0  0  0  0  0  0  0  0  0  0  0
    1.5892    0.1436    0.5470 C   0  0  0  0  0  0  0  0  0  0  0  0
    1.7704    1.5113   -2.3508 C   0  0  0  0  0  0  0  0  0  0  0  0
   -2.6677   -0.0468    0.1796 H   0  0  0  0  0  0  0  0  0  0  0  0
   -1.1068   -0.9998    2.1919 H   0  0  0  0  0  0  0  0  0  0  0  0
   -1.0715    0.7632    2.1305 H   0  0  0  0  0  0  0  0  0  0  0  0
   -0.6331   -1.1570   -0.2042 H   0  0  0  0  0  0  0  0  0  0  0  0
   -0.3387    1.0148   -2.3112 H   0  0  0  0  0  0  0  0  0  0  0  0
    0.2515    1.7139   -0.0211 H   0  0  0  0  0  0  0  0  0  0  0  0
    0.7257   -0.3710   -2.1697 H   0  0  0  0  0  0  0  0  0  0  0  0
    1.6296    2.5872   -2.1722 H   0  0  0  0  0  0  0  0  0  0  0  0
    1.9036    1.3656   -3.4662 H   0  0  0  0  0  0  0  0  0  0  0  0
    1.9304   -0.8163    0.1161 H   0  0  0  0  0  0  0  0  0  0  0  0
    2.4239    0.8046    0.6356 H   0  0  0  0  0  0  0  0  0  0  0  0
    2.7105    1.2052   -1.8941 H   0  0  0  0  0  0  0  0  0  0  0  0
   -1.9785    0.3912   -0.3278 O   0  0  0  0  0  0  0  0  0  0  0  0
    1.4175   -0.8040    2.7838 O   0  0  0  0  0  0  0  0  0  0  0  0
  1 11  1  6  0  0  0
  1  2  1  0  0  0  0
  2  5  1  0  0  0  0
  2 10  1  0  0  0  0
  2  9  1  0  0  0  0
  3  4  1  0  0  0  0
  4 13  1  1  0  0  0
  4  1  1  0  0  0  0
  4  6  1  0  0  0  0
  5 21  2  0  0  0  0
  6 18  1  0  0  0  0
  6  5  1  0  0  0  0
  7 15  1  0  0  0  0
  7 19  1  0  0  0  0
  7  3  1  0  0  0  0
 12  3  1  0  0  0  0
 14  3  1  0  0  0  0
 16  7  1  0  0  0  0
 17  6  1  0  0  0  0
 20  1  1  0  0  0  0
 20  8  1  0  0  0  0
M  END
$$$$
end
 OpenBabel10282513463D

 18 18  0  0  1  0  0  0  0  0999 V2000
   -1.4352   -1.0202    2.3606 C   0  0  0  0  0  0  0  0  0  0  0  0
   -0.3590   -0.3723    1.5178 C   0  0  1  0  0  3  0  0  0  0  0  0
   -0.2111   -0.7617    0.1388 C   0  0  0  0  0  0  0  0  0  0  0  0
    0.1583    0.9217    1.8858 C   0  0  0  0  0  0  0  0  0  0  0  0
    0.2817   -0.2009   -2.2788 C   0  0  0  0  0  0  0  0  0  0  0  0
    0.2840    0.1136   -0.8144 C   0  0  0  0  0  0  0  0  0  0  0  0
    0.7611    1.7473    0.9538 C   0  0  0  0  0  0  0  0  0  0  0  0
    0.9112    1.4017   -0.4319 C   0  0  0  0  0  0  0  0  0  0  0  0
   -2.4222   -0.6051    2.0462 H   0  0  0  0  0  0  0  0  0  0  0  0
   -1.4299   -2.1054    2.2476 H   0  0  0  0  0  0  0  0  0  0  0  0
   -1.3205   -0.7387    3.4179 H   0  0  0  0  0  0  0  0  0  0  0  0
   -0.5228   -1.7517   -0.1347 H   0  0  0  0  0  0  0  0  0  0  0  0
   -0.2688   -1.1312   -2.4529 H   0  0  0  0  0  0  0  0  0  0  0  0
   -0.1686    0.5892   -2.8625 H   0  0  0  0  0  0  0  0  0  0  0  0
    0.0356    1.2705    2.8844 H   0  0  0  0  0  0  0  0  0  0  0  0
    1.1496    2.7180    1.2525 H   0  0  0  0  0  0  0  0  0  0  0  0
    1.3095   -0.3202   -2.6135 H   0  0  0  0  0  0  0  0  0  0  0  0
    1.5077    2.0816   -1.2522 O   0  0  0  0  0  0  0  0  0  0  0  0
  1 11  1  0  0  0  0
  2  4  1  0  0  0  0
  2  1  1  6  0  0  0
  3  2  1  0  0  0  0
  4 15  1  0  0  0  0
  5  6  1  0  0  0  0
  6  8  1  0  0  0  0
  6  3  2  0  0  0  0
  7 16  1  0  0  0  0
  7  4  2  0  0  0  0
  8  7  1  0  0  0  0
  9  1  1  0  0  0  0
 10  1  1  0  0  0  0
 12  3  1  0  0  0  0
 13  5  1  0  0  0  0
 14  5  1  0  0  0  0
 17  5  1  0  0  0  0
 18  8  2  0  0  0  0
M  END
$$$$
end
 OpenBabel10282513463D

 18 18  0  0  0  0  0  0  0  0999 V2000
   -1.3174    0.1224   -2.7513 C   0  0  0  0  0  0  0  0  0  0  0  0
   -0.3671   -0.0837   -1.5631 C   0  0  0  0  0  0  0  0  0  0  0  0
   -0.5133    0.9825   -0.5150 C   0  0  0  0  0  0  0  0  0  0  0  0
    0.1557    0.6782    0.7935 C   0  0  0  0  0  0  0  0  0  0  0  0
    0.7733    1.0141    2.9154 C   0  0  0  0  0  0  0  0  0  0  0  0
    1.0519   -0.3778    1.1068 C   0  0  0  0  0  0  0  0  0  0  0  0
    1.4152   -0.2371    2.3879 C   0  0  0  0  0  0  0  0  0  0  0  0
   -2.3602    0.0754   -2.4847 H   0  0  0  0  0  0  0  0  0  0  0  0
   -1.1335   -0.6235   -3.5700 H   0  0  0  0  0  0  0  0  0  0  0  0
   -1.1499    1.0887   -3.2470 H   0  0  0  0  0  0  0  0  0  0  0  0
   -0.5110   -1.0801   -1.1060 H   0  0  0  0  0  0  0  0  0  0  0  0
    0.2215    0.8798    3.9226 H   0  0  0  0  0  0  0  0  0  0  0  0
    0.6648   -0.0384   -1.9117 H   0  0  0  0  0  0  0  0  0  0  0  0
    1.3940   -1.1871    0.4291 H   0  0  0  0  0  0  0  0  0  0  0  0
    1.5501    1.7924    3.2506 H   0  0  0  0  0  0  0  0  0  0  0  0
    2.0407   -0.8975    2.9468 H   0  0  0  0  0  0  0  0  0  0  0  0
   -1.1331    1.9955   -0.6712 O   0  0  0  0  0  0  0  0  0  0  0  0
   -0.0309    1.4668    1.8138 N   0  0  0  0  0  0  0  0  0  0  0  0
  1  8  1  0  0  0  0
  1  2  1  0  0  0  0
  2 11  1  0  0  0  0
  2  3  1  0  0  0  0
  3  4  1  0  0  0  0
  4  6  1  0  0  0  0
  4 18  2  0  0  0  0
  5 15  1  0  0  0  0
  5 12  1  0  0  0  0
  6  7  2  0  0  0  0
  7  5  1  0  0  0  0
  7 16  1  0  0  0  0
  9  1  1  0  0  0  0
 10  1  1  0  0  0  0
 13  2  1  0  0  0  0
 14  6  1  0  0  0  0
 17  3  2  0  0  0  0
 18  5  1  0  0  0  0
M  END
$$$$
end
 OpenBabel10282513463D

 12 12  0  0  1  0  0  0  0  0999 V2000
   -0.4606   -1.4350   -0.7919 C   0  0  0  0  0  0  0  0  0  0  0  0
   -0.3385   -0.1083   -1.4709 C   0  0  0  0  0  0  0  0  0  0  0  0
    0.3977    0.8165   -0.4441 C   0  0  2  0  0  0  0  0  0  0  0  0
    0.7103   -0.1259    0.7512 C   0  0  0  0  0  0  0  0  0  0  0  0
   -0.7455    2.3500   -0.7320 H   0  0  0  0  0  0  0  0  0  0  0  0
    0.4926    0.3315    1.7048 H   0  0  0  0  0  0  0  0  0  0  0  0
    1.3009    1.2276   -0.8548 H   0  0  0  0  0  0  0  0  0  0  0  0
    1.7489   -0.4644    0.7200 H   0  0  0  0  0  0  0  0  0  0  0  0
   -0.8474   -2.4724   -1.1728 O   0  0  0  0  0  0  0  0  0  0  0  0
   -0.8078    0.1695   -2.5329 O   0  0  0  0  0  0  0  0  0  0  0  0
   -0.5193    1.8214    0.0055 O   0  0  0  0  0  0  0  0  0  0  0  0
   -0.0989   -1.2926    0.5370 O   0  0  0  0  0  0  0  0  0  0  0  0
  1 12  1  0  0  0  0
  2  1  1  0  0  0  0
  2  3  1  0  0  0  0
  3  7  1  6  0  0  0
  3 11  1  0  0  0  0
  3  4  1  0  0  0  0
  4  6  1  0  0  0  0
  5 11  1  0  0  0  0
  8  4  1  0  0  0  0
  9  1  2  0  0  0  0
 10  2  2  0  0  0  0
 12  4  1  0  0  0  0
M  END
$$$$
end
 OpenBabel10282513463D

 20 23  0  0  1  0  0  0  0  0999 V2000
   -2.0448    0.3929   -0.6176 C   0  0  2  0  0  0  0  0  0  0  0  0
   -1.7797    0.1561    0.8878 C   0  0  2  0  0  0  0  0  0  0  0  0
   -0.7059    0.4626   -1.1093 C   0  0  2  0  0  0  0  0  0  0  0  0
   -0.7732    1.3713    0.7630 C   0  0  1  0  0  0  0  0  0  0  0  0
   -0.5499   -0.7949    0.9814 C   0  0  0  0  0  0  0  0  0  0  0  0
    0.1892    0.2899    0.1471 C   0  0  1  0  0  0  0  0  0  0  0  0
    1.6887    0.4175   -0.0329 C   0  0  0  0  0  0  0  0  0  0  0  0
    2.4870    0.3426    1.2509 C   0  0  0  0  0  0  0  0  0  0  0  0
   -2.8834    0.2294   -1.2243 H   0  0  0  0  0  0  0  0  0  0  0  0
   -2.6160    0.1703    1.5929 H   0  0  0  0  0  0  0  0  0  0  0  0
   -0.6362   -1.7735    0.4917 H   0  0  0  0  0  0  0  0  0  0  0  0
   -0.4305    0.4493   -2.1601 H   0  0  0  0  0  0  0  0  0  0  0  0
   -0.5062    2.1423    1.5366 H   0  0  0  0  0  0  0  0  0  0  0  0
   -0.1761   -0.8637    1.9875 H   0  0  0  0  0  0  0  0  0  0  0  0
    1.9001    1.4050   -0.4996 H   0  0  0  0  0  0  0  0  0  0  0  0
    2.0508   -0.3331   -0.7431 H   0  0  0  0  0  0  0  0  0  0  0  0
    2.1523    1.0756    1.9877 H   0  0  0  0  0  0  0  0  0  0  0  0
    2.3533   -0.6703    1.7029 H   0  0  0  0  0  0  0  0  0  0  0  0
    3.5405    0.4398    1.0967 H   0  0  0  0  0  0  0  0  0  0  0  0
   -1.3912    1.7483   -0.5572 N   0  0  2  0  0  0  0  0  0  0  0  0
  1  9  1  6  0  0  0
  1 20  1  0  0  0  0
  1  2  1  0  0  0  0
  2  5  1  0  0  0  0
  2 10  1  1  0  0  0
  3 12  1  6  0  0  0
  3  1  1  0  0  0  0
  3 20  1  0  0  0  0
  3  6  1  0  0  0  0
  4  2  1  0  0  0  0
  4 13  1  1  0  0  0
  5 14  1  0  0  0  0
  6  7  1  6  0  0  0
  6  4  1  0  0  0  0
  6  5  1  0  0  0  0
  7  8  1  0  0  0  0
  8 18  1  0  0  0  0
  8 17  1  0  0  0  0
 11  5  1  0  0  0  0
 15  7  1  0  0  0  0
 16  7  1  0  0  0  0
 19  8  1  0  0  0  0
 20  4  1  0  0  0  0
M  END
$$$$
end
 OpenBabel10282513463D

 18 16  0  0  1  0  0  0  0  0999 V2000
   -1.6028   -0.5340    1.8743 C   0  0  0  0  0  0  0  0  0  0  0  0
   -0.8493    1.6510   -0.3582 C   0  0  0  0  0  0  0  0  0  0  0  0
   -0.5607   -0.8435   -1.2299 C   0  0  0  0  0  3  0  0  0  0  0  0
   -0.3750   -0.6851    0.9355 C   0  0  0  0  0  3  0  0  0  0  0  0
   -0.4096    0.2717   -0.2732 C   0  0  2  0  0  0  0  0  0  0  0  0
    0.9330   -0.5917    1.7193 C   0  0  0  0  0  0  0  0  0  0  0  0
   -2.5283   -0.8227    1.3838 H   0  0  0  0  0  0  0  0  0  0  0  0
   -1.6815    0.4875    2.2152 H   0  0  0  0  0  0  0  0  0  0  0  0
   -1.4200   -2.3858    0.0303 H   0  0  0  0  0 15  0  0  0  0  0  0
   -1.5140   -1.1658    2.7413 H   0  0  0  0  0  0  0  0  0  0  0  0
   -1.0550   -0.8651   -2.1836 H   0  0  0  0  0  0  0  0  0  0  0  0
   -0.7512    2.0269   -1.3658 H   0  0  0  0  0  0  0  0  0  0  0  0
    0.3250   -2.5455   -0.1411 H   0  0  0  0  0 15  0  0  0  0  0  0
    0.9671   -1.3466    2.5061 H   0  0  0  0  0  0  0  0  0  0  0  0
    1.0328    0.3909    2.1837 H   0  0  0  0  0  0  0  0  0  0  0  0
    1.8254   -0.7681    1.0790 H   0  0  0  0  0  0  0  0  0  0  0  0
   -1.2370    2.2995    0.6364 O   0  0  0  0  0  0  0  0  0  0  0  0
    0.6629   -0.1128   -1.1669 O   0  0  0  0  0  0  0  0  0  0  0  0
  1  8  1  0  0  0  0
  1 10  1  0  0  0  0
  2 17  2  0  0  0  0
  3 18  1  0  0  0  0
  3  5  1  0  0  0  0
  4  6  1  0  0  0  0
  4  1  1  0  0  0  0
  5  2  1  6  0  0  0
  5  4  1  0  0  0  0
  6 15  1  0  0  0  0
  6 14  1  0  0  0  0
  7  1  1  0  0  0  0
 11  3  1  0  0  0  0
 12  2  1  0  0  0  0
 16  6  1  0  0  0  0
 18  5  1  0  0  0  0
M  END
$$$$
end
 OpenBabel10282513463D

 21 20  0  0  1  0  0  0  0  0999 V2000
   -1.9312   -2.4481   -0.8366 C   0  0  0  0  0  0  0  0  0  0  0  0
   -1.9499   -0.9443   -0.9266 C   0  0  0  0  0  0  0  0  0  0  0  0
   -0.6970    0.9934   -0.4963 C   0  0  0  0  0  0  0  0  0  0  0  0
    0.6879    1.5220   -0.1630 C   0  0  0  0  0  0  0  0  0  0  0  0
    1.2751    0.8700    1.0903 C   0  0  1  0  0  0  0  0  0  0  0  0
    2.6255    1.4323    1.4769 C   0  0  0  0  0  0  0  0  0  0  0  0
   -2.7201   -0.5835   -0.2562 H   0  0  0  0  0  0  0  0  0  0  0  0
   -2.2246   -0.6308   -1.9553 H   0  0  0  0  0  0  0  0  0  0  0  0
   -1.3683    1.3052    0.3211 H   0  0  0  0  0  0  0  0  0  0  0  0
   -1.0246   -2.8637   -1.1969 H   0  0  0  0  0  0  0  0  0  0  0  0
   -1.0771    1.4821   -1.4117 H   0  0  0  0  0  0  0  0  0  0  0  0
    0.5594    0.5027    2.8570 H   0  0  0  0  0  0  0  0  0  0  0  0
    0.6626    2.6103   -0.0106 H   0  0  0  0  0  0  0  0  0  0  0  0
    1.3765   -0.1937    0.8356 H   0  0  0  0  0  0  0  0  0  0  0  0
    1.3568    1.3210   -1.0343 H   0  0  0  0  0  0  0  0  0  0  0  0
    2.5321    2.4757    1.7513 H   0  0  0  0  0  0  0  0  0  0  0  0
    2.9929    0.9183    2.3587 H   0  0  0  0  0  0  0  0  0  0  0  0
    3.3363    1.3263    0.6412 H   0  0  0  0  0  0  0  0  0  0  0  0
   -2.8399   -3.1160   -0.4953 O   0  0  0  0  0  0  0  0  0  0  0  0
   -0.6566   -0.4169   -0.6234 O   0  0  0  0  0  0  0  0  0  0  0  0
    0.3301    1.0515    2.1392 O   0  0  0  0  0  0  0  0  0  0  0  0
  1 19  2  0  0  0  0
  2  1  1  0  0  0  0
  2 20  1  0  0  0  0
  2  7  1  0  0  0  0
  3  4  1  0  0  0  0
  3  9  1  0  0  0  0
  4 13  1  0  0  0  0
  4  5  1  0  0  0  0
  5 14  1  6  0  0  0
  5  6  1  0  0  0  0
  5 21  1  0  0  0  0
  6 16  1  0  0  0  0
  6 17  1  0  0  0  0
  8  2  1  0  0  0  0
 10  1  1  0  0  0  0
 11  3  1  0  0  0  0
 15  4  1  0  0  0  0
 18  6  1  0  0  0  0
 20  3  1  0  0  0  0
 21 12  1  0  0  0  0
M  END
$$$$
end
 OpenBabel10282513463D

 20 20  0  0  1  0  0  0  0  0999 V2000
    0.1272    0.4926   -0.8649 C   0  0  0  0  0  0  0  0  0  0  0  0
   -0.0871    0.4231    1.4265 C   0  0  2  0  0  0  0  0  0  0  0  0
    0.3943   -1.9525   -1.2989 C   0  0  0  0  0  0  0  0  0  0  0  0
    0.5446   -0.8723    0.9611 C   0  0  0  0  0  0  0  0  0  0  0  0
    1.2281    2.2580    0.3692 C   0  0  0  0  0  0  0  0  0  0  0  0
   -1.8826   -0.3691    2.1913 H   0  0  0  0  0  0  0  0  0  0  0  0
   -2.0666    0.8912    1.0767 H   0  0  0  0  0  0  0  0  0  0  0  0
   -0.3416   -2.6913   -0.9317 H   0  0  0  0  0  0  0  0  0  0  0  0
    0.0922   -1.6440   -2.3095 H   0  0  0  0  0  0  0  0  0  0  0  0
    0.0838   -1.7842    1.3838 H   0  0  0  0  0  0  0  0  0  0  0  0
    0.3904    0.7979    2.3336 H   0  0  0  0  0  0  0  0  0  0  0  0
    1.0788    2.9781    1.1772 H   0  0  0  0  0  0  0  0  0  0  0  0
    1.3789   -2.4043   -1.3582 H   0  0  0  0  0  0  0  0  0  0  0  0
    1.3020    2.7993   -0.5921 H   0  0  0  0  0  0  0  0  0  0  0  0
    1.6125   -0.9340    1.3094 H   0  0  0  0  0  0  0  0  0  0  0  0
    2.1743    1.7072    0.5311 H   0  0  0  0  0  0  0  0  0  0  0  0
    0.0370    0.8754   -2.0124 O   0  0  0  0  0  0  0  0  0  0  0  0
   -1.5380    0.3394    1.6303 N   0  0  0  0  0  0  0  0  0  0  0  0
    0.1193    1.3154    0.3093 N   0  0  0  0  0  0  0  0  0  0  0  0
    0.3373   -0.8102   -0.4432 N   0  0  0  0  0  0  0  0  0  0  0  0
  1 20  1  0  0  0  0
  1 19  1  0  0  0  0
  2 18  1  0  0  0  0
  2 11  1  1  0  0  0
  3  8  1  0  0  0  0
  3 20  1  0  0  0  0
  4 15  1  0  0  0  0
  4 10  1  0  0  0  0
  4  2  1  0  0  0  0
  5 16  1  0  0  0  0
  5 12  1  0  0  0  0
  7 18  1  0  0  0  0
  9  3  1  0  0  0  0
 13  3  1  0  0  0  0
 14  5  1  0  0  0  0
 17  1  2  0  0  0  0
 18  6  1  0  0  0  0
 19  5  1  0  0  0  0
 19  2  1  0  0  0  0
 20  4  1  0  0  0  0
M  END
$$$$
end
 OpenBabel10282513463D

 21 23  0  0  1  0  0  0  0  0999 V2000
   -1.6884   -0.0149   -0.3841 C   0  0  0  0  0  0  0  0  0  0  0  0
   -0.3226    0.1581    0.1410 C   0  0  1  0  0  0  0  0  0  0  0  0
    0.2050    1.3005    1.0244 C   0  0  0  0  0  0  0  0  0  0  0  0
    0.6534   -0.8273    0.9007 C   0  0  1  0  0  0  0  0  0  0  0  0
    1.1247   -1.8479   -0.1253 C   0  0  0  0  0  0  0  0  0  0  0  0
    0.9788    0.2771   -0.7572 C   0  0  1  0  0  0  0  0  0  0  0  0
    1.0539    1.3222   -1.8680 C   0  0  0  0  0  0  0  0  0  0  0  0
    1.4653    0.4910    0.7128 C   0  0  1  0  0  0  0  0  0  0  0  0
   -2.3649   -0.2751    0.4031 H   0  0  0  0  0  0  0  0  0  0  0  0
   -2.0749    0.9221   -0.8323 H   0  0  0  0  0  0  0  0  0  0  0  0
   -1.7563   -0.7814   -1.1644 H   0  0  0  0  0  0  0  0  0  0  0  0
   -0.1107    1.2543    2.0756 H   0  0  0  0  0  0  0  0  0  0  0  0
    0.3190   -2.5461   -0.4190 H   0  0  0  0  0  0  0  0  0  0  0  0
    0.1731    2.2907    0.6284 H   0  0  0  0  0  0  0  0  0  0  0  0
    0.4172   -1.1716    1.9058 H   0  0  0  0  0  0  0  0  0  0  0  0
    0.4278    0.9629   -2.7226 H   0  0  0  0  0  0  0  0  0  0  0  0
    0.6806    2.2899   -1.5266 H   0  0  0  0  0  0  0  0  0  0  0  0
    1.9908   -2.4319    0.1764 H   0  0  0  0  0  0  0  0  0  0  0  0
    2.0559    1.4223   -2.2594 H   0  0  0  0  0  0  0  0  0  0  0  0
    2.4774    0.6653    1.0201 H   0  0  0  0  0  0  0  0  0  0  0  0
    1.4141   -0.9859   -1.2040 O   0  0  0  0  0  0  0  0  0  0  0  0
  1  9  1  0  0  0  0
  2  1  1  6  0  0  0
  2  4  1  0  0  0  0
  2  3  1  0  0  0  0
  3 12  1  0  0  0  0
  4 15  1  1  0  0  0
  5 18  1  0  0  0  0
  5  4  1  0  0  0  0
  6  7  1  6  0  0  0
  6  2  1  0  0  0  0
  6  8  1  0  0  0  0
  7 17  1  0  0  0  0
  8  4  1  0  0  0  0
  8 20  1  1  0  0  0
  8  3  1  0  0  0  0
 10  1  1  0  0  0  0
 11  1  1  0  0  0  0
 13  5  1  0  0  0  0
 14  3  1  0  0  0  0
 16  7  1  0  0  0  0
 19  7  1  0  0  0  0
 21  6  1  0  0  0  0
 21  5  1  0  0  0  0
M  END
$$$$
end
 OpenBabel10282513463D

 17 17  0  0  1  0  0  0  0  0999 V2000
   -1.8185    1.3612    0.4903 C   0  0  0  0  0  0  0  0  0  0  0  0
   -1.2217   -1.0778   -0.2842 C   0  0  0  0  0  0  0  0  0  0  0  0
   -0.9602    0.1632    0.3597 C   0  0  1  0  0  3  0  0  0  0  0  0
   -0.0745   -1.8425   -0.2442 C   0  0  0  0  0  0  0  0  0  0  0  0
    0.8986   -1.1243    0.4764 C   0  0  0  0  0  0  0  0  0  0  0  0
    1.1027    1.1304    1.5338 C   0  0  0  0  0  0  0  0  0  0  0  0
   -2.4533    1.3295    1.3902 H   0  0  0  0  0  0  0  0  0  0  0  0
   -2.5242    1.4206   -0.3710 H   0  0  0  0  0  0  0  0  0  0  0  0
   -2.1718   -1.3526   -0.7001 H   0  0  0  0  0  0  0  0  0  0  0  0
   -1.2638    2.2771    0.5101 H   0  0  0  0  0  0  0  0  0  0  0  0
    0.5442    1.4940    2.4022 H   0  0  0  0  0  0  0  0  0  0  0  0
    1.0272   -2.9944   -1.2639 H   0  0  0  0  0  0  0  0  0  0  0  0
    1.3085    1.9631    0.8882 H   0  0  0  0  0  0  0  0  0  0  0  0
    2.0449    0.6729    1.8638 H   0  0  0  0  0  0  0  0  0  0  0  0
    0.2073   -3.0290   -0.8289 O   0  0  0  0  0  0  0  0  0  0  0  0
    2.1332   -1.3981    0.8171 O   0  0  0  0  0  0  0  0  0  0  0  0
    0.3346    0.1059    0.8162 N   0  0  0  0  0  0  0  0  0  0  0  0
  1 10  1  0  0  0  0
  1  7  1  0  0  0  0
  2  4  2  0  0  0  0
  2  3  1  0  0  0  0
  3  1  1  6  0  0  0
  3 17  1  0  0  0  0
  4  5  1  0  0  0  0
  5 17  1  0  0  0  0
  5 16  2  0  0  0  0
  6 14  1  0  0  0  0
  6 11  1  0  0  0  0
  8  1  1  0  0  0  0
  9  2  1  0  0  0  0
 12 15  1  0  0  0  0
 13  6  1  0  0  0  0
 15  4  1  0  0  0  0
 17  6  1  0  0  0  0
M  END
$$$$
end
 OpenBabel10282513463D

 16 17  0  0  1  0  0  0  0  0999 V2000
   -1.7222   -0.3588    0.9581 C   0  0  0  0  0  3  0  0  0  0  0  0
   -0.9429    0.1652   -1.3958 C   0  0  0  0  0  0  0  0  0  0  0  0
   -0.6573   -0.0130    0.0803 C   0  0  2  0  0  0  0  0  0  0  0  0
    0.1275   -0.9879    1.9393 C   0  0  0  0  0  0  0  0  0  0  0  0
    0.5186   -0.5631    0.7172 C   0  0  0  0  0  0  0  0  0  0  0  0
    1.9264   -0.5524    0.1642 C   0  0  0  0  0  0  0  0  0  0  0  0
   -2.7703   -0.3040    0.7904 H   0  0  0  0  0  0  0  0  0  0  0  0
   -2.0494    0.2258   -1.6821 H   0  0  0  0  0  0  0  0  0  0  0  0
   -0.4308   -0.3752   -2.1018 H   0  0  0  0  0  0  0  0  0  0  0  0
    0.6655   -1.4152    2.7715 H   0  0  0  0  0  0  0  0  0  0  0  0
    1.5293   -1.6128   -1.4587 H   0  0  0  0  0  0  0  0  0  0  0  0
    2.3570    0.4672    0.3060 H   0  0  0  0  0  0  0  0  0  0  0  0
    2.5686   -1.2085    0.7319 H   0  0  0  0  0  0  0  0  0  0  0  0
   -1.2476   -0.8543    2.1205 O   0  0  0  0  0  0  0  0  0  0  0  0
   -0.6773    1.2108   -0.6955 O   0  0  0  0  0  0  0  0  0  0  0  0
    1.9809   -0.7756   -1.2546 N   0  0  0  0  0  2  0  0  0  0  0  0
  1 14  1  0  0  0  0
  2 15  1  0  0  0  0
  2  3  1  0  0  0  0
  3 15  1  1  0  0  0
  3  5  1  0  0  0  0
  3  1  1  0  0  0  0
  4 14  1  0  0  0  0
  4 10  1  0  0  0  0
  5  4  2  0  0  0  0
  6 12  1  0  0  0  0
  6  5  1  0  0  0  0
  6 13  1  0  0  0  0
  7  1  1  0  0  0  0
  8  2  1  0  0  0  0
  9  2  1  0  0  0  0
 11 16  1  0  0  0  0
 16  6  1  0  0  0  0
M  END
$$$$
end
 OpenBabel10282513463D

 20 20  0  0  1  0  0  0  0  0999 V2000
   -1.6671    0.6617    0.7275 C   0  0  0  0  0  0  0  0  0  0  0  0
   -0.4571    0.4356   -0.1728 C   0  0  2  0  0  0  0  0  0  0  0  0
    0.1338   -0.9654   -0.0315 C   0  0  2  0  0  0  0  0  0  0  0  0
    0.6701    1.4895    0.1277 C   0  0  0  0  0  0  0  0  0  0  0  0
    1.4255   -1.0826   -0.8202 C   0  0  0  0  0  0  0  0  0  0  0  0
    2.0124    1.1499   -0.5556 C   0  0  0  0  0  0  0  0  0  0  0  0
   -2.4335   -0.1038    0.5297 H   0  0  0  0  0  0  0  0  0  0  0  0
   -2.1071    1.6405    0.5609 H   0  0  0  0  0  0  0  0  0  0  0  0
   -1.6097   -1.8841   -0.1944 H   0  0  0  0  0  0  0  0  0  0  0  0
   -1.3777    0.5621    1.7933 H   0  0  0  0  0  0  0  0  0  0  0  0
   -0.7170    0.5627   -1.2616 H   0  0  0  0  0  0  0  0  0  0  0  0
    0.3490   -1.1281    1.0329 H   0  0  0  0  0  0  0  0  0  0  0  0
    0.3427    2.4741   -0.2079 H   0  0  0  0  0  0  0  0  0  0  0  0
    0.8274    1.5419    1.1832 H   0  0  0  0  0  0  0  0  0  0  0  0
    1.2259   -0.9371   -1.8697 H   0  0  0  0  0  0  0  0  0  0  0  0
    1.8508   -2.0856   -0.6790 H   0  0  0  0  0  0  0  0  0  0  0  0
    1.9301    1.3378   -1.6264 H   0  0  0  0  0  0  0  0  0  0  0  0
    2.8032    1.7958   -0.1539 H   0  0  0  0  0  0  0  0  0  0  0  0
   -0.7159   -2.0245   -0.5004 O   0  0  0  0  0  0  0  0  0  0  0  0
    2.4175   -0.1836   -0.3411 O   0  0  0  0  0  0  0  0  0  0  0  0
  1 10  1  0  0  0  0
  2 11  1  6  0  0  0
  2  3  1  0  0  0  0
  2  4  1  0  0  0  0
  2  1  1  0  0  0  0
  3 12  1  1  0  0  0
  4 14  1  0  0  0  0
  5 16  1  0  0  0  0
  5 20  1  0  0  0  0
  5  3  1  0  0  0  0
  6 20  1  0  0  0  0
  6 18  1  0  0  0  0
  6  4  1  0  0  0  0
  7  1  1  0  0  0  0
  8  1  1  0  0  0  0
 13  4  1  0  0  0  0
 15  5  1  0  0  0  0
 17  6  1  0  0  0  0
 19  9  1  0  0  0  0
 19  3  1  0  0  0  0
M  END
$$$$
end
 OpenBabel10282513463D

 20 21  0  0  1  0  0  0  0  0999 V2000
   -2.0870    0.3852   -0.6127 C   0  0  0  0  0  0  0  0  0  0  0  0
   -0.7874    0.9841   -0.3565 C   0  0  1  0  0  0  0  0  0  0  0  0
   -0.6396    1.5649    1.1103 C   0  0  0  0  0  0  0  0  0  0  0  0
    0.2554   -1.5166   -0.3379 C   0  0  0  0  0  0  0  0  0  0  0  0
    0.4045    0.0211   -0.1194 C   0  0  0  0  0  0  0  0  0  0  0  0
    0.5687    0.6054    1.3201 C   0  0  0  0  0  0  0  0  0  0  0  0
    1.6231   -1.5660   -1.0728 C   0  0  0  0  0  0  0  0  0  0  0  0
    1.6174    0.0023   -1.1014 C   0  0  0  0  0  0  0  0  0  0  0  0
   -1.5010    1.3540    1.7284 H   0  0  0  0  0  0  0  0  0  0  0  0
   -0.5860   -1.7676   -0.9975 H   0  0  0  0  0  0  0  0  0  0  0  0
   -0.5616    1.7387   -1.1148 H   0  0  0  0  0  0  0  0  0  0  0  0
   -0.4329    2.6280    1.1917 H   0  0  0  0  0  0  0  0  0  0  0  0
    0.1926   -2.0791    0.5733 H   0  0  0  0  0  0  0  0  0  0  0  0
    0.4224   -0.1368    2.1174 H   0  0  0  0  0  0  0  0  0  0  0  0
    1.3244    0.3874   -2.0840 H   0  0  0  0  0  0  0  0  0  0  0  0
    1.6436   -2.0658   -2.0292 H   0  0  0  0  0  0  0  0  0  0  0  0
    1.5045    1.1156    1.4956 H   0  0  0  0  0  0  0  0  0  0  0  0
    2.4184   -1.9974   -0.4628 H   0  0  0  0  0  0  0  0  0  0  0  0
    2.5342    0.4455   -0.7672 H   0  0  0  0  0  0  0  0  0  0  0  0
   -3.1134   -0.1037   -0.8225 N   0  0  0  0  0  0  0  0  0  0  0  0
  1  2  1  0  0  0  0
  2 11  1  6  0  0  0
  2  5  1  0  0  0  0
  2  3  1  0  0  0  0
  3 12  1  0  0  0  0
  3  6  1  0  0  0  0
  3  9  1  0  0  0  0
  4  5  1  0  0  0  0
  4 13  1  0  0  0  0
  5  6  1  0  0  0  0
  6 17  1  0  0  0  0
  6 14  1  0  0  0  0
  7 18  1  0  0  0  0
  7  4  1  0  0  0  0
  8  7  1  0  0  0  0
  8 19  1  0  0  0  0
  8  5  1  0  0  0  0
 10  4  1  0  0  0  0
 15  8  1  0  0  0  0
 16  7  1  0  0  0  0
 20  1  3  0  0  0  0
M  END
$$$$
end
 OpenBabel10282513463D

 19 21  0  0  1  0  0  0  0  0999 V2000
   -1.8654   -1.5300    1.2531 C   0  0  0  0  0  0  0  0  0  0  0  0
   -1.6713    1.4075    0.4745 C   0  0  0  0  0  0  0  0  0  0  0  0
   -0.9960    0.3972   -0.4994 C   0  0  2  0  0  0  0  0  0  0  0  0
   -0.8007   -0.6305    0.7066 C   0  0  1  0  0  0  0  0  0  0  0  0
   -0.4991    0.7796    1.3073 C   0  0  1  0  0  0  0  0  0  0  0  0
    0.4210    0.8571   -0.0068 C   0  0  1  0  0  0  0  0  0  0  0  0
    1.3054   -0.3877    0.0549 C   0  0  0  0  0  0  0  0  0  0  0  0
   -2.7871   -1.0078    1.4942 H   0  0  0  0  0  0  0  0  0  0  0  0
   -2.6538    1.1410    0.7856 H   0  0  0  0  0  0  0  0  0  0  0  0
   -2.0500   -2.3417    0.5618 H   0  0  0  0  0  0  0  0  0  0  0  0
   -1.5300   -1.9820    2.1998 H   0  0  0  0  0  0  0  0  0  0  0  0
   -1.5400    2.4526    0.2171 H   0  0  0  0  0  0  0  0  0  0  0  0
   -1.2675    0.1635   -1.5048 H   0  0  0  0  0  0  0  0  0  0  0  0
   -0.1773    1.0080    2.3312 H   0  0  0  0  0  0  0  0  0  0  0  0
    1.6720   -0.6966   -0.9269 H   0  0  0  0  0  0  0  0  0  0  0  0
    1.6586    2.3522    0.0379 H   0  0  0  0  0  0  0  0  0  0  0  0
    2.1431   -0.3017    0.7345 H   0  0  0  0  0  0  0  0  0  0  0  0
    0.3922   -1.3598    0.5285 O   0  0  0  0  0  0  0  0  0  0  0  0
    0.9131    2.0738   -0.4845 O   0  0  0  0  0  0  0  0  0  0  0  0
  1  8  1  0  0  0  0
  1 11  1  0  0  0  0
  2  9  1  0  0  0  0
  2  5  1  0  0  0  0
  3 13  1  6  0  0  0
  3  6  1  0  0  0  0
  3  2  1  0  0  0  0
  3  4  1  0  0  0  0
  4  1  1  1  0  0  0
  4  5  1  0  0  0  0
  5 14  1  1  0  0  0
  6 19  1  6  0  0  0
  6  7  1  0  0  0  0
  6  5  1  0  0  0  0
  7 18  1  0  0  0  0
  7 17  1  0  0  0  0
 10  1  1  0  0  0  0
 12  2  1  0  0  0  0
 15  7  1  0  0  0  0
 18  4  1  0  0  0  0
 19 16  1  0  0  0  0
M  END
$$$$
end
 OpenBabel10282513463D

 21 22  0  0  1  0  0  0  0  0999 V2000
   -1.1555   -1.3558   -1.6836 C   0  0  0  0  0  0  0  0  0  0  0  0
   -0.5994   -1.2426   -0.2595 C   0  0  0  0  0  0  0  0  0  0  0  0
   -0.4788    0.2912   -0.0893 C   0  0  2  0  0  0  0  0  0  0  0  0
   -0.2745    0.7389   -1.5773 C   0  0  0  0  0  0  0  0  0  0  0  0
    0.6160    0.7761    0.9139 C   0  0  0  0  0  0  0  0  0  0  0  0
    2.0615    0.5124    0.5222 C   0  0  1  0  0  0  0  0  0  0  0  0
    3.0983    1.6045    0.5436 C   0  0  0  0  0  3  0  0  0  0  0  0
   -2.2489   -1.1776   -1.6490 H   0  0  0  0  0  0  0  0  0  0  0  0
   -1.9768    0.4205    1.1514 H   0  0  0  0  0  0  0  0  0  0  0  0
   -1.2489   -1.7050    0.4565 H   0  0  0  0  0  0  0  0  0  0  0  0
   -0.9787   -2.3377   -2.1103 H   0  0  0  0  0  0  0  0  0  0  0  0
   -0.9730    1.5438   -1.8204 H   0  0  0  0  0  0  0  0  0  0  0  0
    0.3898   -1.7018   -0.2465 H   0  0  0  0  0  0  0  0  0  0  0  0
    0.4204    0.2781    1.8727 H   0  0  0  0  0  0  0  0  0  0  0  0
    0.4419    1.8512    1.0925 H   0  0  0  0  0  0  0  0  0  0  0  0
    0.7430    1.0785   -1.7539 H   0  0  0  0  0  0  0  0  0  0  0  0
    2.2360   -0.2992   -0.1414 H   0  0  0  0  0  0  0  0  0  0  0  0
    2.8255    2.5965    0.8446 H   0  0  0  0  0  0  0  0  0  0  0  0
   -1.7351    0.8100    0.3462 O   0  0  0  0  0  0  0  0  0  0  0  0
   -0.4922   -0.3524   -2.4074 O   0  0  0  0  0  0  0  0  0  0  0  0
    3.0125    0.6347    1.5995 O   0  0  0  0  0  0  0  0  0  0  0  0
  1  8  1  0  0  0  0
  1  2  1  0  0  0  0
  2 13  1  0  0  0  0
  2  3  1  0  0  0  0
  2 10  1  0  0  0  0
  3 19  1  1  0  0  0
  3  5  1  0  0  0  0
  4  3  1  0  0  0  0
  5 15  1  0  0  0  0
  5 14  1  0  0  0  0
  6 17  1  6  0  0  0
  6  7  1  0  0  0  0
  6  5  1  0  0  0  0
  6 21  1  0  0  0  0
  7 18  1  0  0  0  0
  7 21  1  0  0  0  0
 11  1  1  0  0  0  0
 12  4  1  0  0  0  0
 16  4  1  0  0  0  0
 19  9  1  0  0  0  0
 20  1  1  0  0  0  0
 20  4  1  0  0  0  0
M  END
$$$$
end
 OpenBabel10282513463D

 20 22  0  0  1  0  0  0  0  0999 V2000
   -1.5988   -0.8683    0.3959 C   0  0  0  0  0  0  0  0  0  0  0  0
   -0.9492    0.4533    0.8226 C   0  0  2  0  0  0  0  0  0  0  0  0
   -0.9634    0.8018   -0.6879 C   0  0  1  0  0  0  0  0  0  0  0  0
    0.3878   -0.1931    0.3940 C   0  0  1  0  0  0  0  0  0  0  0  0
    0.3316    1.5374   -1.0375 C   0  0  0  0  0  0  0  0  0  0  0  0
    2.4352    0.2665   -0.8745 C   0  0  0  0  0  0  0  0  0  0  0  0
    3.3392   -0.6375   -0.0461 C   0  0  0  0  0  3  0  0  0  0  0  0
   -2.6098   -0.8533    0.0106 H   0  0  0  0  0  0  0  0  0  0  0  0
   -1.8830    1.0320   -1.1755 H   0  0  0  0  0  0  0  0  0  0  0  0
   -1.4880   -1.7666    1.0463 H   0  0  0  0  0  0  0  0  0  0  0  0
   -1.1323    1.1332    1.6572 H   0  0  0  0  0  0  0  0  0  0  0  0
    0.3106    2.5976   -0.8251 H   0  0  0  0  0  0  0  0  0  0  0  0
    0.5414    1.3822   -2.0900 H   0  0  0  0  0  0  0  0  0  0  0  0
    0.8447   -0.9586    1.0407 H   0  0  0  0  0  0  0  0  0  0  0  0
    2.0972   -0.3340   -1.7381 H   0  0  0  0  0  0  0  0  0  0  0  0
    2.9300   -1.5934    0.2232 H   0  0  0  0  0  0  0  0  0  0  0  0
    3.0077    1.0854   -1.2910 H   0  0  0  0  0  0  0  0  0  0  0  0
    3.6562   -0.0974    0.8484 H   0  0  0  0  0  0  0  0  0  0  0  0
   -0.5245   -0.7265   -0.6789 N   0  0  1  0  0  0  0  0  0  0  0  0
    1.3112    0.8202   -0.1310 N   0  0  0  0  0  0  0  0  0  0  0  0
  1  2  1  0  0  0  0
  1 10  1  0  0  0  0
  2 11  1  1  0  0  0
  3  9  1  6  0  0  0
  3 19  1  0  0  0  0
  3  2  1  0  0  0  0
  4  2  1  0  0  0  0
  4 14  1  1  0  0  0
  5 12  1  0  0  0  0
  5  3  1  0  0  0  0
  5 20  1  0  0  0  0
  6 20  1  0  0  0  0
  6  7  1  0  0  0  0
  7 16  1  0  0  0  0
  7 18  1  0  0  0  0
  8  1  1  0  0  0  0
 13  5  1  0  0  0  0
 15  6  1  0  0  0  0
 17  6  1  0  0  0  0
 19  4  1  0  0  0  0
 19  1  1  1  0  0  0
 20  4  1  0  0  0  0
M  END
$$$$
end
 OpenBabel10282513463D

 14 13  0  0  0  0  0  0  0  0999 V2000
   -1.7189   -1.1036   -0.3142 C   0  0  0  0  0  0  0  0  0  0  0  0
   -0.9297    0.9381    0.4243 C   0  0  0  0  0  3  0  0  0  0  0  0
   -0.3812   -1.0910   -0.6902 C   0  0  0  0  0  3  0  0  0  0  0  0
    0.1947    0.1572   -0.2540 C   0  0  0  0  0  2  0  0  0  0  0  0
    1.6037    0.2897    0.2334 C   0  0  0  0  0  2  0  0  0  0  0  0
    2.4006    0.2606    0.9067 C   0  0  0  0  0  2  0  0  0  0  0  0
   -2.9966    0.3208    0.4718 H   0  0  0  0  0  0  0  0  0  0  0  0
   -2.4303   -1.8760   -0.4968 H   0  0  0  0  0  0  0  0  0  0  0  0
   -1.1578    1.8941   -0.0107 H   0  0  0  0  0  0  0  0  0  0  0  0
   -0.7039    1.1348    1.4803 H   0  0  0  0  0  0  0  0  0  0  0  0
    0.1429   -1.8485   -1.2610 H   0  0  0  0  0  0  0  0  0  0  0  0
   -2.0709    0.0353    0.3354 N   0  0  0  0  0  4  0  0  0  0  0  0
    1.3183    0.6950   -0.7172 N   0  0  0  0  0  2  0  0  0  0  0  0
    1.8367    1.3823    1.7842 F   0  0  0  0  0  0  0  0  0  0  0  0
  1 12  2  0  0  0  0
  2 10  1  0  0  0  0
  3  1  1  0  0  0  0
  3  4  1  0  0  0  0
  5  6  1  0  0  0  0
  6 14  1  0  0  0  0
  8  1  1  0  0  0  0
  9  2  1  0  0  0  0
 11  3  1  0  0  0  0
 12  2  1  0  0  0  0
 12  7  1  0  0  0  0
 13  4  1  0  0  0  0
 13  5  1  0  0  0  0
M  END
$$$$
end
 OpenBabel10282513463D

 14 13  0  0  0  0  0  0  0  0999 V2000
   -2.3647   -2.5452   -0.9861 C   0  0  0  0  0  0  0  0  0  0  0  0
   -1.4411   -1.4625   -0.6590 C   0  0  0  0  0  0  0  0  0  0  0  0
   -0.7813   -0.5279   -0.4123 C   0  0  0  0  0  0  0  0  0  0  0  0
    0.1093    0.6227   -0.1245 C   0  0  0  0  0  0  0  0  0  0  0  0
    1.0605    0.3527    1.0428 C   0  0  0  0  0  0  0  0  0  0  0  0
   -3.4131   -2.2674   -0.7784 H   0  0  0  0  0  0  0  0  0  0  0  0
   -2.3488   -2.7658   -2.0803 H   0  0  0  0  0  0  0  0  0  0  0  0
   -2.1111   -3.4651   -0.4500 H   0  0  0  0  0  0  0  0  0  0  0  0
   -0.5199    1.4912    0.1063 H   0  0  0  0  0  0  0  0  0  0  0  0
    0.5051    0.1157    1.9633 H   0  0  0  0  0  0  0  0  0  0  0  0
    0.6894    0.8801   -1.0088 H   0  0  0  0  0  0  0  0  0  0  0  0
    1.4566    2.2028    1.4063 H   0  0  0  0  0  0  0  0  0  0  0  0
    1.6814   -0.5132    0.8250 H   0  0  0  0  0  0  0  0  0  0  0  0
    1.9491    1.4166    1.2333 O   0  0  0  0  0  0  0  0  0  0  0  0
  1  6  1  0  0  0  0
  1  2  1  0  0  0  0
  1  8  1  0  0  0  0
  2  3  3  0  0  0  0
  3  4  1  0  0  0  0
  4  9  1  0  0  0  0
  4  5  1  0  0  0  0
  5 14  1  0  0  0  0
  5 10  1  0  0  0  0
  7  1  1  0  0  0  0
 11  4  1  0  0  0  0
 13  5  1  0  0  0  0
 14 12  1  0  0  0  0
M  END
$$$$
end
 OpenBabel10282513463D

 23 24  0  0  1  0  0  0  0  0999 V2000
   -2.3879   -1.7270    1.1459 C   0  0  0  0  0  0  0  0  0  0  0  0
   -1.2747   -0.7370    1.3971 C   0  0  0  0  0  0  0  0  0  0  0  0
   -0.7787    0.9083   -1.2087 C   0  0  0  0  0  0  0  0  0  0  0  0
   -0.4703   -0.6057   -1.1897 C   0  0  2  0  0  0  0  0  0  0  0  0
   -0.1544   -0.8267    0.3174 C   0  0  1  0  0  0  0  0  0  0  0  0
    0.7537    0.9100   -0.7466 C   0  0  1  0  0  0  0  0  0  0  0  0
    0.9494   -0.2707   -1.7196 C   0  0  0  0  0  0  0  0  0  0  0  0
    1.6135    2.1482   -0.7018 C   0  0  0  0  0  0  0  0  0  0  0  0
   -3.1152   -1.7114    1.9255 H   0  0  0  0  0  0  0  0  0  0  0  0
   -2.9291   -1.4815    0.2086 H   0  0  0  0  0  0  0  0  0  0  0  0
   -2.0109   -2.7256    0.9810 H   0  0  0  0  0  0  0  0  0  0  0  0
   -1.6549    0.2826    1.4249 H   0  0  0  0  0  0  0  0  0  0  0  0
   -1.5067    1.3092   -0.5104 H   0  0  0  0  0  0  0  0  0  0  0  0
   -1.1102   -1.3384   -1.6674 H   0  0  0  0  0  0  0  0  0  0  0  0
   -0.9262    1.3459   -2.1910 H   0  0  0  0  0  0  0  0  0  0  0  0
   -0.8135   -0.8998    2.3710 H   0  0  0  0  0  0  0  0  0  0  0  0
    0.3705   -1.7686    0.4564 H   0  0  0  0  0  0  0  0  0  0  0  0
    0.9355    0.0627   -2.7827 H   0  0  0  0  0  0  0  0  0  0  0  0
    1.1776    2.8515    0.0406 H   0  0  0  0  0  0  0  0  0  0  0  0
    1.7362   -1.0034   -1.5630 H   0  0  0  0  0  0  0  0  0  0  0  0
    1.6636    2.6292   -1.6527 H   0  0  0  0  0  0  0  0  0  0  0  0
    2.6309    1.8885   -0.3553 H   0  0  0  0  0  0  0  0  0  0  0  0
    0.7219    0.3011    0.5212 O   0  0  0  0  0  0  0  0  0  0  0  0
  1  2  1  0  0  0  0
  1  9  1  0  0  0  0
  2 12  1  0  0  0  0
  2 16  1  0  0  0  0
  3  4  1  0  0  0  0
  3  6  1  0  0  0  0
  3 13  1  0  0  0  0
  4 14  1  6  0  0  0
  4  5  1  0  0  0  0
  5 17  1  1  0  0  0
  5 23  1  0  0  0  0
  5  2  1  0  0  0  0
  6  8  1  6  0  0  0
  6 23  1  0  0  0  0
  7 20  1  0  0  0  0
  7  4  1  0  0  0  0
  7  6  1  0  0  0  0
  8 22  1  0  0  0  0
  8 19  1  0  0  0  0
 10  1  1  0  0  0  0
 11  1  1  0  0  0  0
 15  3  1  0  0  0  0
 18  7  1  0  0  0  0
 21  8  1  0  0  0  0
M  END
$$$$
end
 OpenBabel10282513463D

 15 15  0  0  0  0  0  0  0  0999 V2000
   -2.0567   -1.0636   -0.5595 C   0  0  0  0  0  0  0  0  0  0  0  0
   -0.7642   -0.3579   -0.7117 C   0  0  0  0  0  0  0  0  0  0  0  0
    1.2305    0.2633   -0.3034 C   0  0  0  0  0  0  0  0  0  0  0  0
    2.5672    0.5542    0.3487 C   0  0  0  0  0  0  0  0  0  0  0  0
   -2.7542   -0.5174    0.0773 H   0  0  0  0  0  0  0  0  0  0  0  0
   -2.5037   -1.1809   -1.5407 H   0  0  0  0  0  0  0  0  0  0  0  0
   -1.9075   -2.0276   -0.0682 H   0  0  0  0  0  0  0  0  0  0  0  0
    2.2916   -1.1071    1.4521 H   0  0  0  0  0  0  0  0  0  0  0  0
    2.4979    1.4705    0.9437 H   0  0  0  0  0  0  0  0  0  0  0  0
    3.2804    0.7806   -0.4631 H   0  0  0  0  0  0  0  0  0  0  0  0
    3.7087   -0.3190    1.8383 H   0  0  0  0  0  0  0  0  0  0  0  0
    0.8162    0.9238   -1.3818 O   0  0  0  0  0  0  0  0  0  0  0  0
   -0.4690    0.5026   -1.6175 N   0  0  0  0  0  0  0  0  0  0  0  0
    0.2729   -0.5535    0.1546 N   0  0  0  0  0  4  0  0  0  0  0  0
    3.0561   -0.5952    1.0992 N   0  0  0  0  0  0  0  0  0  0  0  0
  1  7  1  0  0  0  0
  1  5  1  0  0  0  0
  2  1  1  0  0  0  0
  2 14  2  0  0  0  0
  3 14  2  0  0  0  0
  3  4  1  0  0  0  0
  4  9  1  0  0  0  0
  4 15  1  0  0  0  0
  6  1  1  0  0  0  0
 10  4  1  0  0  0  0
 12  3  1  0  0  0  0
 13 12  1  0  0  0  0
 13  2  2  0  0  0  0
 15  8  1  0  0  0  0
 15 11  1  0  0  0  0
M  END
$$$$
end
 OpenBabel10282513463D

 22 21  0  0  1  0  0  0  0  0999 V2000
   -1.3930    0.7024   -2.5771 C   0  0  0  0  0  0  0  0  0  0  0  0
   -0.4524    1.6417   -1.8354 C   0  0  0  0  0  0  0  0  0  0  0  0
   -0.2594   -1.0527    2.4967 C   0  0  0  0  0  0  0  0  0  0  0  0
   -0.2896    0.3354    0.3987 C   0  0  2  0  0  0  0  0  0  0  0  0
    0.6132   -0.2343    1.5104 C   0  0  2  0  0  0  0  0  0  0  0  0
    0.4358    0.8938   -0.8114 C   0  0  0  0  0  0  0  0  0  0  0  0
   -1.8522    0.0256    2.4765 H   0  0  0  0  0  0  0  0  0  0  0  0
   -2.0903    0.1769   -1.8506 H   0  0  0  0  0  0  0  0  0  0  0  0
   -2.0439    1.2389   -3.2937 H   0  0  0  0  0  0  0  0  0  0  0  0
   -0.8819   -0.0760   -3.1345 H   0  0  0  0  0  0  0  0  0  0  0  0
   -0.9966    2.4307   -1.3345 H   0  0  0  0  0  0  0  0  0  0  0  0
   -0.6929   -1.8819    1.9773 H   0  0  0  0  0  0  0  0  0  0  0  0
   -0.7423   -0.7768   -0.1259 H   0  0  0  0  0  0  0  0  0  0  0  0
    0.2205    2.1236   -2.5692 H   0  0  0  0  0  0  0  0  0  0  0  0
    0.4145   -1.4247    3.2640 H   0  0  0  0  0  0  0  0  0  0  0  0
    0.9821    0.0793   -1.3015 H   0  0  0  0  0  0  0  0  0  0  0  0
    1.0266    0.6499    2.0295 H   0  0  0  0  0  0  0  0  0  0  0  0
    1.4086   -1.6262    0.5043 H   0  0  0  0  0  0  0  0  0  0  0  0
    1.1856    1.5672   -0.3958 H   0  0  0  0  0  0  0  0  0  0  0  0
   -1.4701    0.7083    0.6802 O   0  0  0  0  0  1  0  0  0  0  0  0
   -1.2385   -0.2597    3.1518 O   0  0  0  0  0  0  0  0  0  0  0  0
    1.7282   -0.9115    1.0211 O   0  0  0  0  0  0  0  0  0  0  0  0
  1  8  1  0  0  0  0
  1  2  1  0  0  0  0
  2 11  1  0  0  0  0
  2  6  1  0  0  0  0
  3 21  1  0  0  0  0
  3 15  1  0  0  0  0
  4 13  1  6  0  0  0
  4 20  1  0  0  0  0
  4  5  1  0  0  0  0
  5 17  1  1  0  0  0
  5  3  1  0  0  0  0
  6 19  1  0  0  0  0
  6  4  1  0  0  0  0
  7 21  1  0  0  0  0
  9  1  1  0  0  0  0
 10  1  1  0  0  0  0
 12  3  1  0  0  0  0
 14  2  1  0  0  0  0
 16  6  1  0  0  0  0
 18 22  1  0  0  0  0
 22  5  1  0  0  0  0
M  END
$$$$
end
 OpenBabel10282513463D

 21 22  0  0  1  0  0  0  0  0999 V2000
   -2.0598   -0.7101   -0.2955 C   0  0  0  0  0  0  0  0  0  0  0  0
   -2.0039    0.7691   -0.7952 C   0  0  0  0  0  0  0  0  0  0  0  0
   -0.6136   -0.9881   -0.8403 C   0  0  1  0  0  0  0  0  0  0  0  0
   -0.6589    0.4142   -1.4999 C   0  0  2  0  0  0  0  0  0  0  0  0
    0.5559   -1.0066    0.1775 C   0  0  0  0  0  0  0  0  0  0  0  0
    0.6103    1.1257   -1.0105 C   0  0  0  0  0  0  0  0  0  0  0  0
    1.0722    0.4447    0.2775 C   0  0  2  0  0  0  0  0  0  0  0  0
    2.5362    0.6465    0.6022 C   0  0  0  0  0  0  0  0  0  0  0  0
   -2.8283   -1.3013   -0.8082 H   0  0  0  0  0  0  0  0  0  0  0  0
   -2.8155    1.0851   -1.4408 H   0  0  0  0  0  0  0  0  0  0  0  0
   -2.1568   -0.8538    0.7715 H   0  0  0  0  0  0  0  0  0  0  0  0
   -1.8977    1.5009    0.0077 H   0  0  0  0  0  0  0  0  0  0  0  0
   -0.7261    0.4609   -2.5901 H   0  0  0  0  0  0  0  0  0  0  0  0
   -0.5608   -1.8188   -1.5444 H   0  0  0  0  0  0  0  0  0  0  0  0
    0.2622   -1.4067    1.1545 H   0  0  0  0  0  0  0  0  0  0  0  0
    0.4637    0.9425    1.0552 H   0  0  0  0  0  0  0  0  0  0  0  0
    1.3791   -1.6434   -0.1691 H   0  0  0  0  0  0  0  0  0  0  0  0
    2.7732    0.1675    1.5401 H   0  0  0  0  0  0  0  0  0  0  0  0
    2.8177    1.6918    0.5611 H   0  0  0  0  0  0  0  0  0  0  0  0
    3.1821    0.1498   -0.1495 H   0  0  0  0  0  0  0  0  0  0  0  0
    1.1547    2.0576   -1.5269 O   0  0  0  0  0  0  0  0  0  0  0  0
  1 11  1  0  0  0  0
  2  1  1  0  0  0  0
  2 12  1  0  0  0  0
  3 14  1  6  0  0  0
  3  1  1  0  0  0  0
  3  5  1  0  0  0  0
  4 13  1  6  0  0  0
  4  6  1  0  0  0  0
  4  3  1  0  0  0  0
  4  2  1  0  0  0  0
  5  7  1  0  0  0  0
  5 15  1  0  0  0  0
  6  7  1  0  0  0  0
  7  8  1  0  0  0  0
  7 16  1  1  0  0  0
  8 18  1  0  0  0  0
  9  1  1  0  0  0  0
 10  2  1  0  0  0  0
 17  5  1  0  0  0  0
 19  8  1  0  0  0  0
 20  8  1  0  0  0  0
 21  6  2  0  0  0  0
M  END
$$$$
end
 OpenBabel10282513463D

 18 20  0  0  1  0  0  0  0  0999 V2000
   -0.8680   -1.6346   -1.1297 C   0  0  0  0  0  0  0  0  0  0  0  0
   -0.1584   -0.3766   -0.6425 C   0  0  1  0  0  0  0  0  0  0  0  0
   -0.2135    1.1813    0.5694 C   0  0  1  0  0  0  0  0  0  0  0  0
    0.4785   -0.1280    0.7666 C   0  0  1  0  0  0  0  0  0  0  0  0
    0.7425   -0.9031    2.0031 C   0  0  0  0  0  0  0  0  0  0  0  0
    1.0582    0.3564   -1.3285 C   0  0  0  0  0  0  0  0  0  0  0  0
    1.1979    1.0417    0.0354 C   0  0  1  0  0  0  0  0  0  0  0  0
   -1.6260   -1.9537   -0.3868 H   0  0  0  0  0  0  0  0  0  0  0  0
   -1.4403   -1.4035   -2.0555 H   0  0  0  0  0  0  0  0  0  0  0  0
   -0.5133    1.9748    1.2301 H   0  0  0  0  0  0  0  0  0  0  0  0
   -0.1880   -2.4352   -1.3357 H   0  0  0  0  0  0  0  0  0  0  0  0
   -0.1860   -1.3523    2.4048 H   0  0  0  0  0  0  0  0  0  0  0  0
    0.7728    0.9770   -2.1582 H   0  0  0  0  0  0  0  0  0  0  0  0
    1.1630   -0.2775    2.8068 H   0  0  0  0  0  0  0  0  0  0  0  0
    1.4461   -1.7513    1.8348 H   0  0  0  0  0  0  0  0  0  0  0  0
    1.9338   -0.2749   -1.5496 H   0  0  0  0  0  0  0  0  0  0  0  0
    2.0533    1.6007    0.4120 H   0  0  0  0  0  0  0  0  0  0  0  0
   -1.1081    0.7225   -0.4218 O   0  0  0  0  0  0  0  0  0  0  0  0
  1  8  1  0  0  0  0
  2  1  1  6  0  0  0
  2 18  1  0  0  0  0
  2  4  1  0  0  0  0
  3  4  1  0  0  0  0
  3 10  1  1  0  0  0
  4  5  1  1  0  0  0
  5 12  1  0  0  0  0
  5 14  1  0  0  0  0
  6  2  1  0  0  0  0
  6  7  1  0  0  0  0
  7 17  1  1  0  0  0
  7  3  1  0  0  0  0
  7  4  1  0  0  0  0
  9  1  1  0  0  0  0
 11  1  1  0  0  0  0
 13  6  1  0  0  0  0
 15  5  1  0  0  0  0
 16  6  1  0  0  0  0
 18  3  1  0  0  0  0
M  END
$$$$
end
 OpenBabel10282513463D

 21 21  0  0  1  0  0  0  0  0999 V2000
   -0.6132    0.8679    0.4346 C   0  0  2  0  0  0  0  0  0  0  0  0
   -0.6861    2.0183    1.4143 C   0  0  0  0  0  0  0  0  0  0  0  0
   -0.1336    0.3414   -1.9271 C   0  0  0  0  0  0  0  0  0  0  0  0
    0.3743   -1.3834   -0.1800 C   0  0  0  0  0  0  0  0  0  0  0  0
    0.2840   -0.3064    0.9106 C   0  0  2  0  0  0  0  0  0  0  0  0
    0.8184   -0.8013   -1.5091 C   0  0  0  0  0  0  0  0  0  0  0  0
   -1.6227    0.4415    0.3103 H   0  0  0  0  0  0  0  0  0  0  0  0
   -1.4834    2.7247    1.1381 H   0  0  0  0  0  0  0  0  0  0  0  0
   -1.1572   -0.0601   -2.0746 H   0  0  0  0  0  0  0  0  0  0  0  0
   -0.8950    1.6403    2.4242 H   0  0  0  0  0  0  0  0  0  0  0  0
   -0.6376   -1.8425   -0.2547 H   0  0  0  0  0  0  0  0  0  0  0  0
   -0.6552    2.1614   -1.1930 H   0  0  0  0  0  0  0  0  0  0  0  0
    0.2804   -1.5850    2.3756 H   0  0  0  0  0  0  0  0  0  0  0  0
    0.1842    0.7892   -2.8503 H   0  0  0  0  0  0  0  0  0  0  0  0
    0.2753    2.5783    1.4489 H   0  0  0  0  0  0  0  0  0  0  0  0
    0.8566   -1.5408   -2.2755 H   0  0  0  0  0  0  0  0  0  0  0  0
    1.0457   -2.1693    0.1458 H   0  0  0  0  0  0  0  0  0  0  0  0
    1.3004    0.1057    1.1046 H   0  0  0  0  0  0  0  0  0  0  0  0
    1.8122   -0.3618   -1.3993 H   0  0  0  0  0  0  0  0  0  0  0  0
   -0.2067   -0.8423    2.1227 O   0  0  0  0  0  0  0  0  0  0  0  0
   -0.1127    1.3739   -0.8743 N   0  0  0  0  0  0  0  0  0  0  0  0
  1  7  1  6  0  0  0
  1  5  1  0  0  0  0
  1  2  1  0  0  0  0
  2 15  1  0  0  0  0
  2 10  1  0  0  0  0
  3  6  1  0  0  0  0
  3 21  1  0  0  0  0
  4 17  1  0  0  0  0
  4  5  1  0  0  0  0
  5 18  1  1  0  0  0
  5 20  1  0  0  0  0
  6 19  1  0  0  0  0
  6  4  1  0  0  0  0
  8  2  1  0  0  0  0
  9  3  1  0  0  0  0
 11  4  1  0  0  0  0
 12 21  1  0  0  0  0
 14  3  1  0  0  0  0
 16  6  1  0  0  0  0
 20 13  1  0  0  0  0
 21  1  1  0  0  0  0
M  END
$$$$
end
 OpenBabel10282513463D

 15 12  0  0  0  0  0  0  0  0999 V2000
   -1.2429   -3.2975    6.0243 C   0  0  0  0  0 15  0  0  0  0  0  0
   -0.7210   -2.2062    3.6141 C   0  0  0  0  0  3  0  0  0  0  0  0
   -0.6096   -1.6953    2.5660 C   0  0  0  0  0  0  0  0  0  0  0  0
   -0.5072   -1.0746    1.3949 C   0  0  0  0  0  0  0  0  0  0  0  0
   -0.3738   -0.5352    0.3511 C   0  0  0  0  0  0  0  0  0  0  0  0
   -0.1796    0.0914   -0.9231 C   0  0  0  0  0  0  0  0  0  0  0  0
    0.6669    1.3582   -0.8598 C   0  0  0  0  0  0  0  0  0  0  0  0
    0.9300    1.9816   -2.1987 C   0  0  0  0  0  0  0  0  0  0  0  0
   -1.1920    0.3204   -1.3457 H   0  0  0  0  0  0  0  0  0  0  0  0
    0.2701   -0.6030   -1.6309 H   0  0  0  0  0  0  0  0  0  0  0  0
    0.1950    2.0805   -0.1810 H   0  0  0  0  0  0  0  0  0  0  0  0
    0.4977    1.4934   -3.0750 H   0  0  0  0  0  0  0  0  0  0  0  0
    1.6402    1.0680   -0.4190 H   0  0  0  0  0  0  0  0  0  0  0  0
    1.4333    3.1571   -2.1192 O   0  0  0  0  0  0  0  0  0  0  0  0
    3.1568    4.5876   -4.1554 N   0  0  0  0  0 15  0  0  0  0  0  0
  3  2  3  0  0  0  0
  4  3  1  0  0  0  0
  5  4  3  0  0  0  0
  6  7  1  0  0  0  0
  6  5  1  0  0  0  0
  7 13  1  0  0  0  0
  7 11  1  0  0  0  0
  8 14  2  0  0  0  0
  8  7  1  0  0  0  0
  9  6  1  0  0  0  0
 10  6  1  0  0  0  0
 12  8  1  0  0  0  0
M  END
$$$$
end
 OpenBabel10282513463D

 16 17  0  0  1  0  0  0  0  0999 V2000
   -0.7256   -1.5271    0.5595 C   0  0  0  0  0  0  0  0  0  0  0  0
    0.1900   -0.5146   -0.0263 C   0  0  1  0  0  0  0  0  0  0  0  0
    0.2739    0.9325    0.3028 C   0  0  0  0  0  0  0  0  0  0  0  0
    0.3126    1.9000   -0.8843 C   0  0  0  0  0  0  0  0  0  0  0  0
    0.6047   -2.1969    0.3872 C   0  0  2  0  0  0  0  0  0  0  0  0
    0.7424   -2.3186   -1.0235 C   0  0  0  0  0  0  0  0  0  0  0  0
   -1.5277   -1.9449   -0.1092 H   0  0  0  0  0  0  0  0  0  0  0  0
   -1.1132   -1.3139    1.5418 H   0  0  0  0  0  0  0  0  0  0  0  0
   -0.5945    1.1850    0.9083 H   0  0  0  0  0  0  0  0  0  0  0  0
   -0.5737    1.7777   -1.5341 H   0  0  0  0  0  0  0  0  0  0  0  0
    0.3508    2.9446   -0.5618 H   0  0  0  0  0  0  0  0  0  0  0  0
    1.1561    1.1111    0.9372 H   0  0  0  0  0  0  0  0  0  0  0  0
    1.2155    1.6991   -1.4906 H   0  0  0  0  0  0  0  0  0  0  0  0
    1.4119   -2.1547    1.0299 H   0  0  0  0  0  0  0  0  0  0  0  0
    0.6959   -3.0965   -1.9444 O   0  0  0  0  0  0  0  0  0  0  0  0
    0.7797   -0.9774   -1.2060 O   0  0  0  0  0  0  0  0  0  0  0  0
  1  8  1  0  0  0  0
  2  3  1  1  0  0  0
  2  5  1  0  0  0  0
  2  1  1  0  0  0  0
  3  9  1  0  0  0  0
  3 12  1  0  0  0  0
  4 11  1  0  0  0  0
  4  3  1  0  0  0  0
  5  1  1  0  0  0  0
  5 14  1  1  0  0  0
  6  5  1  0  0  0  0
  7  1  1  0  0  0  0
 10  4  1  0  0  0  0
 13  4  1  0  0  0  0
 15  6  2  0  0  0  0
 16  6  1  0  0  0  0
 16  2  1  0  0  0  0
M  END
$$$$
end
 OpenBabel10282513463D

 16 16  0  0  0  0  0  0  0  0999 V2000
   -3.1665   -1.0279   -1.0299 C   0  0  0  0  0  3  0  0  0  0  0  0
   -1.7115   -0.6413   -0.9969 C   0  0  0  0  0  0  0  0  0  0  0  0
    0.0039    0.1115   -0.1384 C   0  0  0  0  0  0  0  0  0  0  0  0
    2.1789    0.7140    0.5435 C   0  0  0  0  0  0  0  0  0  0  0  0
    2.8340    1.5749    1.6491 C   0  0  0  0  0  0  0  0  0  0  0  0
   -3.6668   -0.9648   -0.0324 H   0  0  0  0  0  0  0  0  0  0  0  0
   -3.3250   -2.0135   -1.4214 H   0  0  0  0  0  0  0  0  0  0  0  0
    2.5943   -0.2923    0.5592 H   0  0  0  0  0  0  0  0  0  0  0  0
    2.4150    1.1081   -0.4730 H   0  0  0  0  0  0  0  0  0  0  0  0
    2.5332    1.2066    2.6442 H   0  0  0  0  0  0  0  0  0  0  0  0
    2.4963    2.6293    1.5656 H   0  0  0  0  0  0  0  0  0  0  0  0
    3.9682    1.5610    1.5740 H   0  0  0  0  0  0  0  0  0  0  0  0
   -1.2976   -0.0172    0.1363 O   0  0  0  0  0  0  0  0  0  0  0  0
    0.3771   -0.3941   -1.3198 O   0  0  0  0  0  0  0  0  0  0  0  0
   -0.8091   -0.8807   -1.8794 N   0  0  0  0  0  0  0  0  0  0  0  0
    0.7682    0.6512    0.7262 N   0  0  0  0  0  0  0  0  0  0  0  0
  1  2  1  0  0  0  0
  1  6  1  0  0  0  0
  2 13  1  0  0  0  0
  3 13  1  0  0  0  0
  3 16  2  0  0  0  0
  4  8  1  0  0  0  0
  4 16  1  0  0  0  0
  4  5  1  0  0  0  0
  5 10  1  0  0  0  0
  7  1  1  0  0  0  0
  9  4  1  0  0  0  0
 11  5  1  0  0  0  0
 12  5  1  0  0  0  0
 14  3  1  0  0  0  0
 15 14  1  0  0  0  0
 15  2  2  0  0  0  0
M  END
$$$$
end
 OpenBabel10282513463D

 18 18  0  0  1  0  0  0  0  0999 V2000
   -0.6834   -2.0495   -0.7913 C   0  0  0  0  0  0  0  0  0  0  0  0
   -0.4111    0.3305    1.9443 C   0  0  0  0  0  0  0  0  0  0  0  0
   -0.5973    0.4886   -0.6320 C   0  0  0  0  0  0  0  0  0  0  0  0
    0.0833   -0.8111   -1.1960 C   0  0  1  0  0  0  0  0  0  0  0  0
    0.2081    0.8452    0.6325 C   0  0  2  0  0  0  0  0  0  0  0  0
    1.5180   -0.7455   -0.5876 C   0  0  0  0  0  0  0  0  0  0  0  0
   -1.6302   -2.1224   -1.3497 H   0  0  0  0  0  0  0  0  0  0  0  0
   -1.6471    0.3304   -0.4177 H   0  0  0  0  0  0  0  0  0  0  0  0
   -1.4027    0.7690    2.0915 H   0  0  0  0  0  0  0  0  0  0  0  0
   -0.5052   -0.7547    1.9400 H   0  0  0  0  0  0  0  0  0  0  0  0
   -0.5106    1.2807   -1.3574 H   0  0  0  0  0  0  0  0  0  0  0  0
    0.1844   -0.8071   -2.2607 H   0  0  0  0  0  0  0  0  0  0  0  0
    0.1720    0.6315    2.7928 H   0  0  0  0  0  0  0  0  0  0  0  0
    0.3442    1.9353    0.7092 H   0  0  0  0  0  0  0  0  0  0  0  0
    2.3615    0.6317    0.6971 H   0  0  0  0  0  0  0  0  0  0  0  0
   -0.3668   -2.8058    0.0683 O   0  0  0  0  0  0  0  0  0  0  0  0
    2.4693   -1.3795   -0.9593 O   0  0  0  0  0  0  0  0  0  0  0  0
    1.4977    0.2482    0.3688 N   0  0  0  0  0  0  0  0  0  0  0  0
  1 16  2  0  0  0  0
  2  9  1  0  0  0  0
  2 13  1  0  0  0  0
  3  8  1  0  0  0  0
  3  5  1  0  0  0  0
  4 12  1  6  0  0  0
  4  1  1  0  0  0  0
  4  3  1  0  0  0  0
  4  6  1  0  0  0  0
  5 14  1  1  0  0  0
  5  2  1  0  0  0  0
  6 18  1  0  0  0  0
  7  1  1  0  0  0  0
 10  2  1  0  0  0  0
 11  3  1  0  0  0  0
 17  6  2  0  0  0  0
 18  5  1  0  0  0  0
 18 15  1  0  0  0  0
M  END
$$$$
end
 OpenBabel10282513463D

 19 19  0  0  1  0  0  0  0  0999 V2000
   -1.9951    0.0202   -0.7794 C   0  0  0  0  0  0  0  0  0  0  0  0
   -0.7489    0.8966   -0.6216 C   0  0  2  0  0  0  0  0  0  0  0  0
   -0.2687    1.3019   -2.0398 C   0  0  0  0  0  0  0  0  0  0  0  0
    0.0970   -0.1025    1.6138 C   0  0  2  0  0  0  0  0  0  0  0  0
    0.4003    0.2608    0.1589 C   0  0  0  0  0  0  0  0  0  0  0  0
    1.0416   -0.9093    2.3923 C   0  0  0  0  0  0  0  0  0  0  0  0
   -2.7129    0.4465   -1.4434 H   0  0  0  0  0  0  0  0  0  0  0  0
   -2.4596   -0.1069    0.2235 H   0  0  0  0  0  0  0  0  0  0  0  0
   -1.7226   -0.9810   -1.1500 H   0  0  0  0  0  0  0  0  0  0  0  0
   -1.0357    1.8356   -0.1513 H   0  0  0  0  0  0  0  0  0  0  0  0
   -0.8070   -1.6443    2.7328 H   0  0  0  0  0  0  0  0  0  0  0  0
   -0.4831    0.6446    2.1321 H   0  0  0  0  0  0  0  0  0  0  0  0
    0.7480   -0.6554   -0.3407 H   0  0  0  0  0  0  0  0  0  0  0  0
    0.7005    1.8211   -2.0226 H   0  0  0  0  0  0  0  0  0  0  0  0
    1.1609   -0.7268    3.4544 H   0  0  0  0  0  0  0  0  0  0  0  0
    1.2086    0.9576    0.1797 H   0  0  0  0  0  0  0  0  0  0  0  0
    1.9383   -1.2278    1.8853 H   0  0  0  0  0  0  0  0  0  0  0  0
   -0.8525    1.0839   -3.0689 O   0  0  0  0  0  0  0  0  0  0  0  0
   -0.1942   -1.5264    1.9278 N   0  0  0  0  0  0  0  0  0  0  0  0
  1  2  1  0  0  0  0
  1  8  1  0  0  0  0
  2 10  1  1  0  0  0
  2  5  1  0  0  0  0
  3 14  1  0  0  0  0
  3  2  1  0  0  0  0
  4 19  1  0  0  0  0
  4 12  1  1  0  0  0
  4  6  1  0  0  0  0
  5 16  1  0  0  0  0
  5  4  1  0  0  0  0
  6 15  1  0  0  0  0
  7  1  1  0  0  0  0
  9  1  1  0  0  0  0
 13  5  1  0  0  0  0
 17  6  1  0  0  0  0
 18  3  2  0  0  0  0
 19  6  1  0  0  0  0
 19 11  1  0  0  0  0
M  END
$$$$
end
 OpenBabel10282513463D

 18 18  0  0  1  0  0  0  0  0999 V2000
   -0.8004   -0.9379   -0.6789 C   0  0  0  0  0  0  0  0  0  0  0  0
   -0.0159    0.7187    1.9416 C   0  0  0  0  0  0  0  0  0  0  0  0
    0.1833    0.2234   -0.6508 C   0  0  1  0  0  0  0  0  0  0  0  0
    0.8701    0.4664    0.7001 C   0  0  0  0  0  0  0  0  0  0  0  0
    1.3528   -0.7845    1.4568 C   0  0  0  0  0  0  0  0  0  0  0  0
    1.1895    0.5965   -2.8231 C   0  0  0  0  0  2  0  0  0  0  0  0
   -1.3958   -0.8808   -1.5821 H   0  0  0  0  0  0  0  0  0  0  0  0
   -1.4326   -0.9553    0.1772 H   0  0  0  0  0  0  0  0  0  0  0  0
   -1.0699    0.9088    1.7587 H   0  0  0  0  0  0  0  0  0  0  0  0
   -0.3605    1.1496   -0.9032 H   0  0  0  0  0  0  0  0  0  0  0  0
   -0.2440   -1.8860   -0.7198 H   0  0  0  0  0  0  0  0  0  0  0  0
    0.3894    1.4599    2.6409 H   0  0  0  0  0  0  0  0  0  0  0  0
    0.6093    1.4875   -2.8752 H   0  0  0  0  0  0  0  0  0  0  0  0
    1.2428   -1.7564    0.9683 H   0  0  0  0  0  0  0  0  0  0  0  0
    1.6385    1.2248    0.5490 H   0  0  0  0  0  0  0  0  0  0  0  0
    2.3456   -0.6801    1.8780 H   0  0  0  0  0  0  0  0  0  0  0  0
    0.3382   -0.5822    2.4656 O   0  0  0  0  0  0  0  0  0  0  0  0
    1.2120    0.0128   -1.6027 O   0  0  0  0  0  0  0  0  0  0  0  0
  1  3  1  0  0  0  0
  1  8  1  0  0  0  0
  2 17  1  0  0  0  0
  2 12  1  0  0  0  0
  3 10  1  6  0  0  0
  3  4  1  0  0  0  0
  4  5  1  0  0  0  0
  4  2  1  0  0  0  0
  5 16  1  0  0  0  0
  5 17  1  0  0  0  0
  6 18  1  0  0  0  0
  7  1  1  0  0  0  0
  9  2  1  0  0  0  0
 11  1  1  0  0  0  0
 13  6  1  0  0  0  0
 14  5  1  0  0  0  0
 15  4  1  0  0  0  0
 18  3  1  0  0  0  0
M  END
$$$$
end
 OpenBabel10282513463D

 23 22  0  0  1  0  0  0  0  0999 V2000
   -1.0864   -1.3862    1.3484 C   0  0  2  0  0  0  0  0  0  0  0  0
   -0.5125   -0.8589    0.0138 C   0  0  0  0  0  0  0  0  0  0  0  0
   -0.4974    0.6563   -0.0279 C   0  0  0  0  0  0  0  0  0  0  0  0
   -0.5697    0.7726   -2.6175 C   0  0  0  0  0  0  0  0  0  0  0  0
   -0.1047   -1.3551    2.4947 C   0  0  0  0  0  0  0  0  0  0  0  0
    0.1270    1.3030   -1.3059 C   0  0  2  0  0  0  0  0  0  0  0  0
    1.5562    1.1950   -1.3305 C   0  0  0  0  0  0  0  0  0  0  0  0
    2.6904    1.1512   -1.3426 C   0  0  0  0  0  0  0  0  0  0  0  0
   -1.9798   -0.8235    1.5861 H   0  0  0  0  0  0  0  0  0  0  0  0
   -1.6162    0.7023   -2.4876 H   0  0  0  0  0  0  0  0  0  0  0  0
   -1.5248    1.0116    0.1125 H   0  0  0  0  0  0  0  0  0  0  0  0
   -1.1245   -1.2364   -0.8137 H   0  0  0  0  0  0  0  0  0  0  0  0
   -0.9228   -3.2805    0.8576 H   0  0  0  0  0  0  0  0  0  0  0  0
   -0.5780   -1.7344    3.4122 H   0  0  0  0  0  0  0  0  0  0  0  0
   -0.1700   -0.2333   -2.8546 H   0  0  0  0  0  0  0  0  0  0  0  0
   -0.2751    1.4136   -3.4643 H   0  0  0  0  0  0  0  0  0  0  0  0
   -0.1706    2.3620   -1.2791 H   0  0  0  0  0  0  0  0  0  0  0  0
    0.0596    1.0375    0.8544 H   0  0  0  0  0  0  0  0  0  0  0  0
    0.2462   -0.3543    2.6814 H   0  0  0  0  0  0  0  0  0  0  0  0
    0.4846   -1.2692   -0.1634 H   0  0  0  0  0  0  0  0  0  0  0  0
    0.7548   -1.9932    2.3002 H   0  0  0  0  0  0  0  0  0  0  0  0
    3.8104    1.0780   -1.3672 H   0  0  0  0  0  0  0  0  0  0  0  0
   -1.6229   -2.6968    1.1407 O   0  0  0  0  0  0  0  0  0  0  0  0
  1  9  1  1  0  0  0
  1  5  1  0  0  0  0
  2  1  1  0  0  0  0
  3  2  1  0  0  0  0
  3 11  1  0  0  0  0
  3 18  1  0  0  0  0
  4 10  1  0  0  0  0
  4  6  1  0  0  0  0
  5 19  1  0  0  0  0
  5 14  1  0  0  0  0
  6 17  1  1  0  0  0
  6  3  1  0  0  0  0
  7  6  1  0  0  0  0
  8  7  3  0  0  0  0
 12  2  1  0  0  0  0
 13 23  1  0  0  0  0
 15  4  1  0  0  0  0
 16  4  1  0  0  0  0
 20  2  1  0  0  0  0
 21  5  1  0  0  0  0
 22  8  1  0  0  0  0
 23  1  1  0  0  0  0
M  END
$$$$
end
 OpenBabel10282513463D

 20 22  0  0  1  0  0  0  0  0999 V2000
   -1.4002   -1.1884   -0.2186 C   0  0  0  0  0  0  0  0  0  0  0  0
   -1.1552    0.8429    0.3473 C   0  0  0  0  0  0  0  0  0  0  0  0
   -0.1762   -0.3184    0.0808 C   0  0  0  0  0  0  0  0  0  0  0  0
    1.0816   -0.6975    0.9179 C   0  0  2  0  0  0  0  0  0  0  0  0
    0.9793   -0.3202   -0.9759 C   0  0  1  0  0  0  0  0  0  0  0  0
    1.8732    0.8917   -0.6112 C   0  0  0  0  0  0  0  0  0  0  0  0
    2.0078    0.5869    0.8947 C   0  0  0  0  0  0  0  0  0  0  0  0
   -2.2928    0.3630   -1.3182 H   0  0  0  0  0  0  0  0  0  0  0  0
   -1.7237   -1.8277    0.6295 H   0  0  0  0  0  0  0  0  0  0  0  0
   -1.3532   -1.8468   -1.1096 H   0  0  0  0  0  0  0  0  0  0  0  0
   -1.4161    0.9406    1.4195 H   0  0  0  0  0  0  0  0  0  0  0  0
   -0.9337    1.8385   -0.0746 H   0  0  0  0  0  0  0  0  0  0  0  0
    0.8030   -0.5636   -2.0204 H   0  0  0  0  0  0  0  0  0  0  0  0
    0.9772   -1.2672    1.8451 H   0  0  0  0  0  0  0  0  0  0  0  0
    1.3748    1.8395   -0.8574 H   0  0  0  0  0  0  0  0  0  0  0  0
    1.6946    1.3948    1.5361 H   0  0  0  0  0  0  0  0  0  0  0  0
    2.8037    0.8708   -1.1614 H   0  0  0  0  0  0  0  0  0  0  0  0
    3.0128    0.3028    1.1617 H   0  0  0  0  0  0  0  0  0  0  0  0
    1.5535   -1.4048   -0.2117 O   0  0  0  0  0  0  0  0  0  0  0  0
   -2.2570    0.0505   -0.3315 N   0  0  0  0  0  0  0  0  0  0  0  0
  1  3  1  0  0  0  0
  1  9  1  0  0  0  0
  2 11  1  0  0  0  0
  3  2  1  0  0  0  0
  3  4  1  0  0  0  0
  4 14  1  1  0  0  0
  5 13  1  6  0  0  0
  5  6  1  0  0  0  0
  5 19  1  0  0  0  0
  5  3  1  0  0  0  0
  6  7  1  0  0  0  0
  7  4  1  0  0  0  0
  7 18  1  0  0  0  0
  7 16  1  0  0  0  0
  8 20  1  0  0  0  0
 10  1  1  0  0  0  0
 12  2  1  0  0  0  0
 15  6  1  0  0  0  0
 17  6  1  0  0  0  0
 19  4  1  0  0  0  0
 20  1  1  0  0  0  0
 20  2  1  0  0  0  0
M  END
$$$$
end
 OpenBabel10282513463D

 16 17  0  0  0  0  0  0  0  0999 V2000
   -0.7636    1.4080   -1.7428 C   0  0  0  0  0  3  0  0  0  0  0  0
   -0.4838    0.1442   -1.2804 C   0  0  0  0  0  0  0  0  0  0  0  0
   -0.3645    2.3105    0.4047 C   0  0  0  0  0  0  0  0  0  0  0  0
   -0.0898   -2.1124   -0.8717 C   0  0  0  0  0  0  0  0  0  0  0  0
   -0.0904   -0.0373    0.0720 C   0  0  0  0  0  0  0  0  0  0  0  0
   -0.0340    1.0937    0.8964 C   0  0  0  0  0  0  0  0  0  0  0  0
    0.1780   -1.4356    0.2725 C   0  0  0  0  0  0  0  0  0  0  0  0
   -1.0429    1.6450   -2.7341 H   0  0  0  0  0  0  0  0  0  0  0  0
   -1.0205    3.3366   -1.2779 H   0  0  0  0  0  0  0  0  0  0  0  0
   -0.4426   -1.4579   -2.9247 H   0  0  0  0  0  0  0  0  0  0  0  0
   -0.3319    3.2111    0.9984 H   0  0  0  0  0  0  0  0  0  0  0  0
   -0.0153   -3.1745   -0.9692 H   0  0  0  0  0  0  0  0  0  0  0  0
    0.2924    0.9852    1.9290 H   0  0  0  0  0  0  0  0  0  0  0  0
    0.5521   -1.8589    1.1797 H   0  0  0  0  0  0  0  0  0  0  0  0
   -0.7015    2.4797   -0.9172 N   0  0  0  0  0  0  0  0  0  0  0  0
   -0.4553   -1.1578   -1.8411 N   0  0  0  0  0  0  0  0  0  0  0  0
  1  2  1  0  0  0  0
  1 15  1  0  0  0  0
  2  5  2  0  0  0  0
  3  6  2  0  0  0  0
  3 11  1  0  0  0  0
  4  7  2  0  0  0  0
  5  7  1  0  0  0  0
  5  6  1  0  0  0  0
  6 13  1  0  0  0  0
  7 14  1  0  0  0  0
  8  1  1  0  0  0  0
  9 15  1  0  0  0  0
 10 16  1  0  0  0  0
 12  4  1  0  0  0  0
 15  3  1  0  0  0  0
 16  2  1  0  0  0  0
 16  4  1  0  0  0  0
M  END
$$$$
end
 OpenBabel10282513463D

 17 17  0  0  1  0  0  0  0  0999 V2000
   -0.8367   -0.8021    0.6641 C   0  0  0  0  0  0  0  0  0  0  0  0
   -0.5797   -0.8514   -0.8668 C   0  0  0  0  0  0  0  0  0  0  0  0
    0.1210    0.1009    2.8268 C   0  0  0  0  0  0  0  0  0  0  0  0
    0.2164    0.0735    1.3405 C   0  0  1  0  0  0  0  0  0  0  0  0
    0.8878   -1.2736   -1.1644 C   0  0  0  0  0  0  0  0  0  0  0  0
    1.8165   -0.3522   -0.3686 C   0  0  0  0  0  0  0  0  0  0  0  0
   -1.8369   -0.3904    0.8704 H   0  0  0  0  0  0  0  0  0  0  0  0
   -1.2843   -1.5349   -1.3577 H   0  0  0  0  0  0  0  0  0  0  0  0
   -0.7879   -1.8025    1.0665 H   0  0  0  0  0  0  0  0  0  0  0  0
   -0.7583    0.1425   -1.3094 H   0  0  0  0  0  0  0  0  0  0  0  0
    0.1370    1.1263    1.0241 H   0  0  0  0  0  0  0  0  0  0  0  0
    1.0144   -2.3046   -0.7859 H   0  0  0  0  0  0  0  0  0  0  0  0
    1.1289   -1.2300   -2.2015 H   0  0  0  0  0  0  0  0  0  0  0  0
    1.7446    0.6761   -0.7279 H   0  0  0  0  0  0  0  0  0  0  0  0
    2.8657   -0.6902   -0.4572 H   0  0  0  0  0  0  0  0  0  0  0  0
    1.5616   -0.3851    1.0220 O   0  0  0  0  0  0  0  0  0  0  0  0
   -0.0260    0.1816    3.9334 N   0  0  0  0  0  0  0  0  0  0  0  0
  1  7  1  0  0  0  0
  1  9  1  0  0  0  0
  1  4  1  0  0  0  0
  2  1  1  0  0  0  0
  3 17  3  0  0  0  0
  4 11  1  6  0  0  0
  4  3  1  0  0  0  0
  5  2  1  0  0  0  0
  5 12  1  0  0  0  0
  5  6  1  0  0  0  0
  6 16  1  0  0  0  0
  8  2  1  0  0  0  0
 10  2  1  0  0  0  0
 13  5  1  0  0  0  0
 14  6  1  0  0  0  0
 15  6  1  0  0  0  0
 16  4  1  0  0  0  0
M  END
$$$$
end
 OpenBabel10282513463D

 21 22  0  0  1  0  0  0  0  0999 V2000
   -1.0950   -0.2262   -0.8969 C   0  0  0  0  0  0  0  0  0  0  0  0
   -0.7449   -1.6856   -1.3538 C   0  0  0  0  0  0  0  0  0  0  0  0
   -0.0850   -2.2430   -0.0677 C   0  0  0  0  0  0  0  0  0  0  0  0
    0.1969    0.2448   -0.1433 C   0  0  0  0  0  0  0  0  0  0  0  0
    0.1601    1.6322    0.5527 C   0  0  1  0  0  0  0  0  0  0  0  0
    0.7091   -1.0715    0.5318 C   0  0  0  0  0  0  0  0  0  0  0  0
    1.2214    2.1338   -0.4799 C   0  0  0  0  0  0  0  0  0  0  0  0
   -1.9035   -0.2687   -0.1712 H   0  0  0  0  0  0  0  0  0  0  0  0
   -1.5826   -2.2560   -1.7410 H   0  0  0  0  0  0  0  0  0  0  0  0
   -1.3411    0.4136   -1.7276 H   0  0  0  0  0  0  0  0  0  0  0  0
   -1.2054    2.9622   -0.0380 H   0  0  0  0  0  0  0  0  0  0  0  0
   -0.8756   -2.5871    0.6066 H   0  0  0  0  0  0  0  0  0  0  0  0
   -0.0037   -1.6357   -2.1625 H   0  0  0  0  0  0  0  0  0  0  0  0
    0.5345   -3.1269   -0.2481 H   0  0  0  0  0  0  0  0  0  0  0  0
    0.6348   -1.0002    1.6236 H   0  0  0  0  0  0  0  0  0  0  0  0
    0.5886    1.5691    1.5687 H   0  0  0  0  0  0  0  0  0  0  0  0
    0.9244    2.9111   -1.1961 H   0  0  0  0  0  0  0  0  0  0  0  0
    1.7624   -1.1520    0.2806 H   0  0  0  0  0  0  0  0  0  0  0  0
    2.2230    2.3596   -0.0691 H   0  0  0  0  0  0  0  0  0  0  0  0
   -1.0236    2.3039    0.5961 O   0  0  0  0  0  0  0  0  0  0  0  0
    1.1582    0.8142   -1.0866 O   0  0  0  0  0  0  0  0  0  0  0  0
  1  8  1  0  0  0  0
  1  4  1  0  0  0  0
  2  1  1  0  0  0  0
  2  3  1  0  0  0  0
  3  6  1  0  0  0  0
  3 12  1  0  0  0  0
  4  6  1  0  0  0  0
  4  5  1  0  0  0  0
  5 20  1  0  0  0  0
  5 16  1  1  0  0  0
  6 15  1  0  0  0  0
  7 19  1  0  0  0  0
  7  5  1  0  0  0  0
  9  2  1  0  0  0  0
 10  1  1  0  0  0  0
 11 20  1  0  0  0  0
 13  2  1  0  0  0  0
 14  3  1  0  0  0  0
 17  7  1  0  0  0  0
 18  6  1  0  0  0  0
 21  7  1  0  0  0  0
 21  4  1  0  0  0  0
M  END
$$$$
end
 OpenBabel10282513463D

 18 21  0  0  1  0  0  0  0  0999 V2000
   -1.4897   -1.1232   -0.2203 C   0  0  0  0  0  0  0  0  0  0  0  0
   -0.7512    1.4628   -0.3931 C   0  0  0  0  0  0  0  0  0  0  0  0
   -0.4158   -0.0113   -0.1477 C   0  0  2  0  0  0  0  0  0  0  0  0
   -0.2625   -2.0386   -0.4956 C   0  0  1  0  0  0  0  0  0  0  0  0
    0.4967   -0.8274   -1.1799 C   0  0  2  0  0  0  0  0  0  0  0  0
    0.6043   -0.4380    0.9050 C   0  0  2  0  0  0  0  0  0  0  0  0
    1.5905   -0.9264   -0.1095 C   0  0  1  0  0  0  0  0  0  0  0  0
   -2.1381   -1.0055   -1.0661 H   0  0  0  0  0  0  0  0  0  0  0  0
   -2.0238   -1.3337    0.6994 H   0  0  0  0  0  0  0  0  0  0  0  0
   -1.3007    1.8538    0.4623 H   0  0  0  0  0  0  0  0  0  0  0  0
   -1.0619    1.6732   -2.3344 H   0  0  0  0  0  0  0  0  0  0  0  0
   -0.3012   -3.0525   -0.8377 H   0  0  0  0  0  0  0  0  0  0  0  0
    0.1693    2.0358   -0.4818 H   0  0  0  0  0  0  0  0  0  0  0  0
    0.5375   -0.5821   -2.2632 H   0  0  0  0  0  0  0  0  0  0  0  0
    0.7763   -0.0835    1.8807 H   0  0  0  0  0  0  0  0  0  0  0  0
    2.6494   -0.9827   -0.1252 H   0  0  0  0  0  0  0  0  0  0  0  0
   -1.5965    1.6211   -1.5381 O   0  0  0  0  0  0  0  0  0  0  0  0
    0.6793   -1.8957    0.6761 N   0  0  2  0  0  0  0  0  0  0  0  0
  1  3  1  0  0  0  0
  1  9  1  0  0  0  0
  2 10  1  0  0  0  0
  3  2  1  6  0  0  0
  3  6  1  0  0  0  0
  4 12  1  6  0  0  0
  4  1  1  0  0  0  0
  4 18  1  0  0  0  0
  5 14  1  6  0  0  0
  5  4  1  0  0  0  0
  5  3  1  0  0  0  0
  5  7  1  0  0  0  0
  6 15  1  1  0  0  0
  7 16  1  6  0  0  0
  7 18  1  0  0  0  0
  7  6  1  0  0  0  0
  8  1  1  0  0  0  0
 11 17  1  0  0  0  0
 13  2  1  0  0  0  0
 17  2  1  0  0  0  0
 18  6  1  0  0  0  0
M  END
$$$$
end
 OpenBabel10282513463D

 12 11  0  0  0  0  0  0  0  0999 V2000
   -0.1000    0.8661   -0.0798 C   0  0  0  0  0  0  0  0  0  0  0  0
    0.8564   -0.7600   -1.2616 C   0  0  0  0  0  0  0  0  0  0  0  0
   -1.1058    2.3006    0.8340 H   0  0  0  0  0  0  0  0  0  0  0  0
   -0.0545    1.4299    1.8437 H   0  0  0  0  0  0  0  0  0  0  0  0
    1.2790   -0.5508    0.7407 H   0  0  0  0  0  0  0  0  0  0  0  0
    1.5670   -1.8184   -2.6057 H   0  0  0  0  0  0  0  0  0  0  0  0
    0.0308   -0.0265   -2.0713 O   0  0  0  0  0  0  0  0  0  0  0  0
    1.4199   -1.7472    1.8054 O   0  0  0  0  0 15  0  0  0  0  0  0
   -0.5335    1.0208   -1.3042 N   0  0  0  0  0  0  0  0  0  0  0  0
   -0.2970    1.7588    0.9164 N   0  0  0  0  0  0  0  0  0  0  0  0
    0.6980   -0.1996   -0.0217 N   0  0  0  0  0  0  0  0  0  0  0  0
    1.6367   -1.6836   -1.6169 N   0  0  0  0  0  0  0  0  0  0  0  0
  1 11  1  0  0  0  0
  1 10  1  0  0  0  0
  2 11  1  0  0  0  0
  3 10  1  0  0  0  0
  6 12  1  0  0  0  0
  7  9  1  0  0  0  0
  7  2  1  0  0  0  0
  9  1  2  0  0  0  0
 10  4  1  0  0  0  0
 11  5  1  0  0  0  0
 12  2  2  0  0  0  0
M  END
$$$$
end
 OpenBabel10282513463D

 12 12  0  0  0  0  0  0  0  0999 V2000
   -0.9751    0.2948   -0.2201 C   0  0  0  0  0  0  0  0  0  0  0  0
   -0.6173   -1.0745   -0.3371 C   0  0  0  0  0  0  0  0  0  0  0  0
    0.6717   -1.4497   -0.4280 C   0  0  0  0  0  0  0  0  0  0  0  0
    1.4038    0.8300   -0.2408 C   0  0  0  0  0  0  0  0  0  0  0  0
   -2.2231    1.7101   -0.1442 H   0  0  0  0  0  0  0  0  0  0  0  0
   -1.4334   -1.7876   -0.3524 H   0  0  0  0  0  0  0  0  0  0  0  0
    0.9989   -2.4989   -0.5366 H   0  0  0  0  0  0  0  0  0  0  0  0
    2.6231   -0.7555   -0.5072 H   0  0  0  0  0  0  0  0  0  0  0  0
    0.0930    1.1869   -0.1770 O   0  0  0  0  0  0  0  0  0  0  0  0
    2.2552    1.6445   -0.1718 O   0  0  0  0  0  0  0  0  0  0  0  0
   -2.1797    0.6888   -0.1974 N   0  0  0  0  0  0  0  0  0  0  0  0
    1.6355   -0.5114   -0.4134 N   0  0  0  0  0  0  0  0  0  0  0  0
  1 11  2  0  0  0  0
  1  9  1  0  0  0  0
  2  1  1  0  0  0  0
  3 12  1  0  0  0  0
  3  2  2  0  0  0  0
  4  9  1  0  0  0  0
  4 10  2  0  0  0  0
  6  2  1  0  0  0  0
  7  3  1  0  0  0  0
  8 12  1  0  0  0  0
 11  5  1  0  0  0  0
 12  4  1  0  0  0  0
M  END
$$$$
end
 OpenBabel10282513463D

 18 21  0  0  1  0  0  0  0  0999 V2000
   -1.3878   -0.9491   -0.6871 C   0  0  2  0  0  0  0  0  0  0  0  0
   -0.8998   -1.6850    0.5681 C   0  0  0  0  0  0  0  0  0  0  0  0
   -0.2530   -1.4379   -1.5669 C   0  0  2  0  0  0  0  0  0  0  0  0
    0.6308   -1.7905   -0.3866 C   0  0  1  0  0  0  0  0  0  0  0  0
    0.4224    0.6168   -0.4014 C   0  0  1  0  0  0  0  0  0  0  0  0
    0.7946    2.0675   -0.1419 C   0  0  0  0  0  0  0  0  0  0  0  0
    1.3067   -0.4716    0.0339 C   0  0  0  0  0  3  0  0  0  0  0  0
   -2.3971   -0.9737   -1.0596 H   0  0  0  0  0  0  0  0  0  0  0  0
   -1.3329   -2.6886    0.6555 H   0  0  0  0  0  0  0  0  0  0  0  0
   -1.0018   -1.1175    1.4931 H   0  0  0  0  0  0  0  0  0  0  0  0
   -0.3264   -1.9438   -2.5144 H   0  0  0  0  0  0  0  0  0  0  0  0
    0.2886    2.6901   -0.8736 H   0  0  0  0  0  0  0  0  0  0  0  0
    0.5286    2.3928    0.8679 H   0  0  0  0  0  0  0  0  0  0  0  0
    1.3007   -2.6695   -0.3802 H   0  0  0  0  0  0  0  0  0  0  0  0
    1.7437   -0.5542    1.0225 H   0  0  0  0  0  0  0  0  0  0  0  0
    1.8799    2.2463   -0.2378 H   0  0  0  0  0  0  0  0  0  0  0  0
   -0.8748    0.4397   -0.7289 N   0  0  1  0  0  0  0  0  0  0  0  0
   -0.1674    0.0977   -1.7268 N   0  0  2  0  0  0  0  0  0  0  0  0
  1  8  1  6  0  0  0
  1  2  1  0  0  0  0
  2  9  1  0  0  0  0
  2 10  1  0  0  0  0
  3 11  1  6  0  0  0
  3  1  1  0  0  0  0
  3  4  1  0  0  0  0
  4 14  1  6  0  0  0
  4  7  1  0  0  0  0
  4  2  1  0  0  0  0
  5  6  1  1  0  0  0
  5  7  1  0  0  0  0
  6 13  1  0  0  0  0
  7 15  1  0  0  0  0
 12  6  1  0  0  0  0
 16  6  1  0  0  0  0
 17  1  1  0  0  0  0
 17  5  1  0  0  0  0
 18  3  1  0  0  0  0
 18 17  1  0  0  0  0
 18  5  1  0  0  0  0
M  END
$$$$
